<?xml version="1.0" encoding="UTF-8"?>

<!-- generated on 2022-12-07 15:58:36 by Eclipse SUMO netedit Version 1.10.0
<configuration xmlns:xsi="http://www.w3.org/2001/XMLSchema-instance" xsi:noNamespaceSchemaLocation="http://sumo.dlr.de/xsd/netconvertConfiguration.xsd">

    <input>
        <sumo-net-file value="MetroSktP.net.xml,3junctions.net.xml"/>
    </input>

    <output>
        <output-file value="/home/tedy/Sumo/script/Test/Sim/net/4junctions.net.xml"/>
        <output.street-names value="true"/>
    </output>

    <processing>
        <geometry.min-radius.fix.railways value="false"/>
        <geometry.max-grade.fix value="false"/>
        <offset.disable-normalization value="true"/>
        <lefthand value="false"/>
    </processing>

    <junctions>
        <no-turnarounds value="true"/>
        <junctions.corner-detail value="5"/>
        <junctions.limit-turn-speed value="5.5"/>
        <rectangular-lane-cut value="false"/>
    </junctions>

    <pedestrian>
        <walkingareas value="false"/>
    </pedestrian>

    <report>
        <aggregate-warnings value="5"/>
    </report>

</configuration>
-->

<net version="1.9" junctionCornerDetail="5" limitTurnSpeed="5.50" xmlns:xsi="http://www.w3.org/2001/XMLSchema-instance" xsi:noNamespaceSchemaLocation="http://sumo.dlr.de/xsd/net_file.xsd">

    <location netOffset="-312195.61,-4666326.23" convBoundary="2839.47,858.76,4889.63,1846.10" origBoundary="24.725718,42.117759,24.792474,42.155549" projParameter="+proj=utm +zone=35 +ellps=WGS84 +datum=WGS84 +units=m +no_defs"/>

    <type id="highway.bridleway" priority="1" numLanes="1" speed="2.78" allow="pedestrian" oneway="1" width="2.00"/>
    <type id="highway.bus_guideway" priority="1" numLanes="1" speed="27.78" allow="bus" oneway="1"/>
    <type id="highway.cycleway" priority="1" numLanes="1" speed="8.33" allow="bicycle" oneway="1" width="1.00"/>
    <type id="highway.footway" priority="1" numLanes="1" speed="2.78" allow="pedestrian" oneway="1" width="2.00"/>
    <type id="highway.ford" priority="1" numLanes="1" speed="2.78" allow="army" oneway="1"/>
    <type id="highway.living_street" priority="2" numLanes="1" speed="2.78" disallow="tram rail_urban rail rail_electric rail_fast ship" oneway="1"/>
    <type id="highway.motorway" priority="14" numLanes="2" speed="39.44" allow="private emergency authority army vip passenger hov taxi bus coach delivery truck trailer motorcycle evehicle custom1 custom2" oneway="1"/>
    <type id="highway.motorway_link" priority="9" numLanes="1" speed="22.22" allow="private emergency authority army vip passenger hov taxi bus coach delivery truck trailer motorcycle evehicle custom1 custom2" oneway="1"/>
    <type id="highway.path" priority="1" numLanes="1" speed="2.78" allow="pedestrian bicycle" oneway="1" width="2.00"/>
    <type id="highway.pedestrian" priority="1" numLanes="1" speed="2.78" allow="pedestrian" oneway="1" width="2.00"/>
    <type id="highway.primary" priority="12" numLanes="2" speed="27.78" disallow="tram rail_urban rail rail_electric rail_fast ship" oneway="1"/>
    <type id="highway.primary_link" priority="7" numLanes="1" speed="22.22" disallow="tram rail_urban rail rail_electric rail_fast ship" oneway="1"/>
    <type id="highway.raceway" priority="15" numLanes="2" speed="83.33" allow="vip" oneway="1"/>
    <type id="highway.residential" priority="3" numLanes="1" speed="13.89" disallow="tram rail_urban rail rail_electric rail_fast ship" oneway="1"/>
    <type id="highway.secondary" priority="11" numLanes="1" speed="27.78" disallow="tram rail_urban rail rail_electric rail_fast ship" oneway="1"/>
    <type id="highway.secondary_link" priority="6" numLanes="1" speed="22.22" disallow="tram rail_urban rail rail_electric rail_fast ship" oneway="1"/>
    <type id="highway.service" priority="1" numLanes="1" speed="5.56" allow="pedestrian delivery bicycle" oneway="1"/>
    <type id="highway.stairs" priority="1" numLanes="1" speed="1.39" allow="pedestrian" oneway="1" width="2.00"/>
    <type id="highway.step" priority="1" numLanes="1" speed="1.39" allow="pedestrian" oneway="1" width="2.00"/>
    <type id="highway.steps" priority="1" numLanes="1" speed="1.39" allow="pedestrian" oneway="1" width="2.00"/>
    <type id="highway.tertiary" priority="10" numLanes="1" speed="22.22" disallow="tram rail_urban rail rail_electric rail_fast ship" oneway="1"/>
    <type id="highway.tertiary_link" priority="5" numLanes="1" speed="22.22" disallow="tram rail_urban rail rail_electric rail_fast ship" oneway="1"/>
    <type id="highway.track" priority="1" numLanes="1" speed="5.56" allow="pedestrian motorcycle moped bicycle" oneway="1"/>
    <type id="highway.trunk" priority="13" numLanes="2" speed="27.78" disallow="pedestrian bicycle tram rail_urban rail rail_electric rail_fast ship" oneway="1"/>
    <type id="highway.trunk_link" priority="8" numLanes="1" speed="22.22" disallow="pedestrian bicycle tram rail_urban rail rail_electric rail_fast ship" oneway="1"/>
    <type id="highway.unclassified" priority="4" numLanes="1" speed="13.89" disallow="tram rail_urban rail rail_electric rail_fast ship" oneway="1"/>
    <type id="highway.unsurfaced" priority="1" numLanes="1" speed="8.33" disallow="tram rail_urban rail rail_electric rail_fast ship" oneway="1"/>
    <type id="railway.highspeed" priority="21" numLanes="1" speed="69.44" allow="rail_fast" oneway="1"/>
    <type id="railway.light_rail" priority="19" numLanes="1" speed="27.78" allow="rail_urban" oneway="1"/>
    <type id="railway.preserved" priority="16" numLanes="1" speed="27.78" allow="rail" oneway="1"/>
    <type id="railway.rail" priority="20" numLanes="1" speed="44.44" allow="rail" oneway="1"/>
    <type id="railway.subway" priority="18" numLanes="1" speed="27.78" allow="rail_urban" oneway="1"/>
    <type id="railway.tram" priority="17" numLanes="1" speed="13.89" allow="tram" oneway="1"/>

    <edge id=":1640887613_0" function="internal">
        <lane id=":1640887613_0_0" index="0" disallow="tram rail_urban rail rail_electric rail_fast ship" speed="27.78" length="14.50" shape="4856.11,1741.96 4853.82,1745.44 4852.22,1747.81 4850.79,1750.27 4849.01,1754.03"/>
        <lane id=":1640887613_0_1" index="1" disallow="tram rail_urban rail rail_electric rail_fast ship" speed="27.78" length="14.50" shape="4853.40,1740.24 4851.04,1743.84 4849.40,1746.30 4847.93,1748.85 4846.09,1752.73"/>
        <lane id=":1640887613_0_2" index="2" disallow="tram rail_urban rail rail_electric rail_fast ship" speed="27.78" length="14.50" shape="4850.70,1738.53 4848.26,1742.24 4846.57,1744.78 4845.06,1747.42 4843.16,1751.42"/>
    </edge>
    <edge id=":1640887613_3" function="internal">
        <lane id=":1640887613_3_0" index="0" disallow="tram rail_urban rail rail_electric rail_fast ship" speed="11.89" length="16.66" shape="4846.48,1738.13 4848.65,1742.70 4849.79,1746.88 4849.91,1750.65 4849.01,1754.03"/>
        <lane id=":1640887613_3_1" index="1" disallow="tram rail_urban rail rail_electric rail_fast ship" speed="10.98" length="14.12" shape="4843.47,1739.30 4845.43,1743.34 4846.52,1746.93 4846.74,1750.06 4846.09,1752.73"/>
        <lane id=":1640887613_3_2" index="2" disallow="tram rail_urban rail rail_electric rail_fast ship" speed="9.99" length="11.60" shape="4840.46,1740.47 4842.21,1743.98 4843.25,1746.98 4843.56,1749.46 4843.16,1751.42"/>
    </edge>
    <edge id=":1698373733_0" function="internal">
        <lane id=":1698373733_0_0" index="0" disallow="tram rail_urban rail rail_electric rail_fast ship" speed="3.65" length="4.67" shape="3430.51,1172.28 3429.31,1173.09 3428.42,1173.15 3427.83,1172.47 3427.55,1171.06"/>
    </edge>
    <edge id=":4653306326_0" function="internal">
        <lane id=":4653306326_0_0" index="0" disallow="tram rail_urban rail rail_electric rail_fast ship" speed="3.65" length="4.67" shape="3472.51,1061.65 3473.69,1060.82 3474.58,1060.74 3475.18,1061.40 3475.49,1062.81"/>
    </edge>
    <edge id=":817484976_0" function="internal">
        <lane id=":817484976_0_0" index="0" disallow="tram rail_urban rail rail_electric rail_fast ship" speed="25.00" length="13.28" shape="2937.02,922.86 2934.41,920.88 2932.13,919.26 2929.43,917.81 2925.56,916.33"/>
    </edge>
    <edge id=":817484976_1" function="internal">
        <lane id=":817484976_1_0" index="0" disallow="tram rail_urban rail rail_electric rail_fast ship" speed="27.78" length="13.70" shape="2939.04,918.87 2935.09,917.91 2932.29,917.64 2929.49,917.35 2925.56,916.33"/>
        <lane id=":817484976_1_1" index="1" disallow="tram rail_urban rail rail_electric rail_fast ship" speed="27.78" length="13.70" shape="2939.99,915.82 2936.06,914.87 2933.27,914.60 2930.49,914.30 2926.57,913.29"/>
        <lane id=":817484976_1_2" index="2" disallow="tram rail_urban rail rail_electric rail_fast ship" speed="27.78" length="13.70" shape="2940.95,912.77 2937.03,911.82 2934.25,911.55 2931.48,911.26 2927.58,910.25"/>
    </edge>
    <edge id=":817497123_0" function="internal">
        <lane id=":817497123_0_0" index="0" disallow="tram rail_urban rail rail_electric rail_fast ship" speed="16.82" length="11.19" shape="2919.21,1039.69 2919.95,1036.43 2920.05,1034.04 2919.68,1031.73 2919.01,1028.69"/>
    </edge>
    <edge id=":817497123_1" function="internal">
        <lane id=":817497123_1_0" index="0" disallow="tram rail_urban rail rail_electric rail_fast ship" speed="27.78" length="11.72" shape="2922.28,1040.57 2923.00,1037.16 2923.14,1034.75 2923.31,1032.34 2924.13,1028.97"/>
        <lane id=":817497123_1_1" index="1" disallow="tram rail_urban rail rail_electric rail_fast ship" speed="27.78" length="11.72" shape="2922.28,1040.57 2923.47,1037.32 2924.66,1035.24 2925.89,1033.16 2927.18,1029.94"/>
        <lane id=":817497123_1_2" index="2" disallow="tram rail_urban rail rail_electric rail_fast ship" speed="27.78" length="11.72" shape="2925.36,1041.45 2926.54,1038.23 2927.73,1036.16 2928.94,1034.11 2930.23,1030.92"/>
    </edge>
    <edge id=":817497162_0" function="internal">
        <lane id=":817497162_0_0" index="0" disallow="tram rail_urban rail rail_electric rail_fast ship" speed="15.88" length="18.12" shape="2907.84,1004.87 2904.81,1002.56 2901.43,1000.36 2897.16,998.77 2891.46,998.31"/>
    </edge>
    <edge id=":817497162_1" function="internal">
        <lane id=":817497162_1_0" index="0" disallow="tram rail_urban rail rail_electric rail_fast ship" speed="27.78" length="18.06" shape="2909.32,999.65 2904.01,999.21 2900.39,998.68 2896.76,998.30 2891.46,998.31"/>
        <lane id=":817497162_1_1" index="1" disallow="tram rail_urban rail rail_electric rail_fast ship" speed="27.78" length="18.06" shape="2909.42,996.45 2904.05,996.00 2900.37,995.48 2896.70,995.10 2891.32,995.12"/>
    </edge>
    <edge id=":817497162_3" function="internal">
        <lane id=":817497162_3_0" index="0" disallow="tram rail_urban rail rail_electric rail_fast ship" speed="27.78" length="18.52" shape="2891.05,988.72 2896.57,988.66 2900.35,988.95 2904.12,989.36 2909.65,989.70"/>
        <lane id=":817497162_3_1" index="1" disallow="tram rail_urban rail rail_electric rail_fast ship" speed="27.78" length="18.52" shape="2891.19,991.92 2896.64,991.86 2900.36,992.15 2904.09,992.56 2909.54,992.90"/>
    </edge>
    <edge id=":829200655_0" function="internal">
        <lane id=":829200655_0_0" index="0" disallow="tram rail_urban rail rail_electric rail_fast ship" speed="27.78" length="0.38" shape="4779.60,1789.05 4779.83,1788.46"/>
        <lane id=":829200655_0_1" index="1" disallow="tram rail_urban rail rail_electric rail_fast ship" speed="27.78" length="0.38" shape="4782.62,1790.11 4782.76,1789.76"/>
        <lane id=":829200655_0_2" index="2" disallow="tram rail_urban rail rail_electric rail_fast ship" speed="27.78" length="0.38" shape="4785.64,1791.17 4785.68,1791.05"/>
    </edge>
    <edge id=":890670596_0" function="internal">
        <lane id=":890670596_0_0" index="0" disallow="tram rail_urban rail rail_electric rail_fast ship" speed="27.78" length="0.27" shape="3871.45,1291.11 3871.78,1291.26"/>
        <lane id=":890670596_0_1" index="1" disallow="tram rail_urban rail rail_electric rail_fast ship" speed="27.78" length="0.27" shape="3870.17,1294.05 3870.42,1294.16"/>
        <lane id=":890670596_0_2" index="2" disallow="tram rail_urban rail rail_electric rail_fast ship" speed="27.78" length="0.27" shape="3868.89,1296.98 3869.07,1297.06"/>
    </edge>
    <edge id=":964939224_0" function="internal">
        <lane id=":964939224_0_0" index="0" disallow="tram rail_urban rail rail_electric rail_fast ship" speed="27.78" length="19.00" shape="4846.23,1760.26 4843.87,1765.21 4841.95,1768.44 4839.76,1771.52 4836.59,1776.02"/>
        <lane id=":964939224_0_1" index="1" disallow="tram rail_urban rail rail_electric rail_fast ship" speed="27.78" length="19.00" shape="4846.23,1760.26 4843.45,1764.95 4840.63,1767.54 4837.54,1769.99 4833.95,1774.22"/>
        <lane id=":964939224_0_2" index="2" disallow="tram rail_urban rail rail_electric rail_fast ship" speed="27.78" length="19.00" shape="4846.23,1760.26 4843.01,1764.75 4839.33,1766.65 4835.37,1768.40 4831.30,1772.42"/>
    </edge>
    <edge id=":964939224_3" function="internal">
        <lane id=":964939224_3_0" index="0" disallow="tram rail_urban rail rail_electric rail_fast ship" speed="11.55" length="18.16" shape="4843.31,1758.96 4841.03,1762.62 4837.85,1765.42 4833.77,1767.35 4828.79,1768.42"/>
        <lane id=":964939224_3_1" index="1" disallow="tram rail_urban rail rail_electric rail_fast ship" speed="10.53" length="14.99" shape="4840.39,1757.66 4838.54,1760.58 4835.90,1762.82 4832.47,1764.38 4828.25,1765.26"/>
        <lane id=":964939224_3_2" index="2" disallow="tram rail_urban rail rail_electric rail_fast ship" speed="10.12" length="13.78" shape="4840.39,1757.66 4839.07,1759.11 4836.52,1760.33 4832.74,1761.33 4827.72,1762.10"/>
    </edge>
    <edge id=":cluster_575651336_948231317_0" function="internal">
        <lane id=":cluster_575651336_948231317_0_0" index="0" disallow="tram rail_urban rail rail_electric rail_fast ship" speed="25.00" length="14.14" shape="2943.98,966.88 2945.73,962.78 2946.68,959.57 2947.20,956.63 2947.66,953.31"/>
    </edge>
    <edge id=":cluster_575651336_948231317_1" function="internal">
        <lane id=":cluster_575651336_948231317_1_0" index="0" disallow="tram rail_urban rail rail_electric rail_fast ship" speed="27.78" length="14.68" shape="2946.87,968.26 2948.43,964.24 2949.03,961.32 2949.61,958.38 2951.10,954.33"/>
        <lane id=":cluster_575651336_948231317_1_1" index="1" disallow="tram rail_urban rail rail_electric rail_fast ship" speed="27.78" length="14.68" shape="2949.75,969.64 2951.33,965.60 2951.94,962.66 2952.52,959.71 2954.01,955.64"/>
        <lane id=":cluster_575651336_948231317_1_2" index="2" disallow="tram rail_urban rail rail_electric rail_fast ship" speed="27.78" length="14.68" shape="2952.64,971.02 2954.22,966.96 2954.84,964.01 2955.43,961.05 2956.93,956.96"/>
    </edge>
    <edge id=":cluster_576940996_gneJ0_0" function="internal">
        <lane id=":cluster_576940996_gneJ0_0_0" index="0" disallow="tram rail_urban rail rail_electric rail_fast ship" speed="27.78" length="9.29" shape="3871.14,1311.57 3868.83,1310.17 3867.43,1308.90 3866.02,1307.66 3863.66,1306.37"/>
        <lane id=":cluster_576940996_gneJ0_0_1" index="1" disallow="tram rail_urban rail rail_electric rail_fast ship" speed="27.78" length="9.29" shape="3872.53,1308.69 3870.18,1307.28 3868.76,1305.99 3867.32,1304.74 3864.93,1303.43"/>
        <lane id=":cluster_576940996_gneJ0_0_2" index="2" disallow="tram rail_urban rail rail_electric rail_fast ship" speed="27.78" length="9.29" shape="3873.92,1305.81 3871.54,1304.38 3870.09,1303.08 3868.63,1301.82 3866.20,1300.49"/>
    </edge>
    <edge id=":cluster_817485017_817497129_0" function="internal">
        <lane id=":cluster_817485017_817497129_0_0" index="0" disallow="tram rail_urban rail rail_electric rail_fast ship" speed="27.78" length="19.71" shape="2959.56,995.15 2957.11,1000.31 2954.61,1003.47 2952.20,1006.67 2950.03,1011.91"/>
        <lane id=":cluster_817485017_817497129_0_1" index="1" disallow="tram rail_urban rail rail_electric rail_fast ship" speed="27.78" length="19.71" shape="2956.57,993.98 2954.10,999.23 2951.57,1002.45 2949.15,1005.70 2946.95,1011.03"/>
        <lane id=":cluster_817485017_817497129_0_2" index="2" disallow="tram rail_urban rail rail_electric rail_fast ship" speed="27.78" length="19.71" shape="2953.59,992.82 2951.09,998.14 2948.54,1001.42 2946.09,1004.73 2943.88,1010.15"/>
    </edge>
    <edge id=":cluster_817485017_817497129_3" function="internal">
        <lane id=":cluster_817485017_817497129_3_0" index="0" disallow="tram rail_urban rail rail_electric rail_fast ship" speed="11.81" length="25.14" shape="2950.61,991.65 2948.28,994.51 2943.61,996.40 2936.60,997.34 2927.26,997.31"/>
    </edge>
    <edge id=":cluster_817485017_817497129_4" function="internal">
        <lane id=":cluster_817485017_817497129_4_0" index="0" disallow="tram rail_urban rail rail_electric rail_fast ship" speed="7.70" length="9.68" shape="2927.59,990.29 2930.29,990.07 2932.49,989.24 2934.18,987.78 2935.37,985.70"/>
        <lane id=":cluster_817485017_817497129_4_1" index="1" disallow="tram rail_urban rail rail_electric rail_fast ship" speed="8.47" length="11.88" shape="2927.59,990.29 2931.75,990.19 2934.93,989.58 2937.13,988.48 2938.35,986.86"/>
        <lane id=":cluster_817485017_817497129_4_2" index="2" disallow="tram rail_urban rail rail_electric rail_fast ship" speed="9.25" length="14.30" shape="2927.59,990.29 2933.21,990.30 2937.37,989.93 2940.08,989.17 2941.33,988.03"/>
    </edge>
    <edge id=":cluster_817485017_817497129_7" function="internal">
        <lane id=":cluster_817485017_817497129_7_0" index="0" disallow="tram rail_urban rail rail_electric rail_fast ship" speed="10.87" length="32.20" shape="2927.44,993.48 2937.20,994.46 2944.16,997.20 2947.64,1002.47 2946.95,1011.03"/>
        <lane id=":cluster_817485017_817497129_7_1" index="1" disallow="tram rail_urban rail rail_electric rail_fast ship" speed="10.30" length="28.73" shape="2927.44,993.48 2936.00,994.51 2941.88,997.29 2944.65,1002.33 2943.88,1010.15"/>
    </edge>
    <edge id=":cluster_817485017_817497129_9" function="internal">
        <lane id=":cluster_817485017_817497129_9_0" index="0" disallow="tram rail_urban rail rail_electric rail_fast ship" speed="27.78" length="20.60" shape="2931.33,1006.55 2938.35,986.86"/>
        <lane id=":cluster_817485017_817497129_9_1" index="1" disallow="tram rail_urban rail rail_electric rail_fast ship" speed="27.78" length="20.60" shape="2934.41,1007.43 2941.33,988.03"/>
        <lane id=":cluster_817485017_817497129_9_2" index="2" disallow="tram rail_urban rail rail_electric rail_fast ship" speed="27.78" length="20.60" shape="2937.49,1008.31 2944.31,989.19"/>
    </edge>
    <edge id=":cluster_829171827_890670350_0" function="internal">
        <lane id=":cluster_829171827_890670350_0_0" index="0" disallow="tram rail_urban rail rail_electric rail_fast ship" speed="7.54" length="12.31" shape="3458.60,1129.19 3454.64,1128.00 3451.50,1127.88 3449.19,1128.84 3447.71,1130.89"/>
    </edge>
    <edge id=":cluster_829171827_890670350_1" function="internal">
        <lane id=":cluster_829171827_890670350_1_0" index="0" disallow="tram rail_urban rail rail_electric rail_fast ship" speed="27.78" length="18.14" shape="3458.60,1129.19 3441.76,1122.30"/>
        <lane id=":cluster_829171827_890670350_1_1" index="1" disallow="tram rail_urban rail rail_electric rail_fast ship" speed="27.78" length="18.14" shape="3459.82,1126.23 3443.03,1119.36"/>
        <lane id=":cluster_829171827_890670350_1_2" index="2" disallow="tram rail_urban rail rail_electric rail_fast ship" speed="27.78" length="18.14" shape="3461.03,1123.27 3444.29,1116.42"/>
    </edge>
    <edge id=":cluster_829171827_890670350_4" function="internal">
        <lane id=":cluster_829171827_890670350_4_0" index="0" disallow="tram rail_urban rail rail_electric rail_fast ship" speed="10.16" length="8.82" shape="3461.03,1123.27 3456.62,1120.37 3454.98,1117.23"/>
    </edge>
    <edge id=":cluster_829171827_890670350_5" function="internal">
        <lane id=":cluster_829171827_890670350_5_0" index="0" disallow="tram rail_urban rail rail_electric rail_fast ship" speed="4.24" length="4.48" shape="3461.03,1123.27 3459.81,1121.45 3459.71,1120.10 3460.41,1119.49"/>
    </edge>
    <edge id=":cluster_829171827_890670350_19" function="internal">
        <lane id=":cluster_829171827_890670350_19_0" index="0" disallow="tram rail_urban rail rail_electric rail_fast ship" speed="10.16" length="14.63" shape="3454.98,1117.23 3454.36,1116.04 3454.25,1110.26 3456.28,1103.04"/>
    </edge>
    <edge id=":cluster_829171827_890670350_20" function="internal">
        <lane id=":cluster_829171827_890670350_20_0" index="0" disallow="tram rail_urban rail rail_electric rail_fast ship" speed="4.24" length="2.61" shape="3460.41,1119.49 3460.73,1119.21 3462.87,1118.78"/>
    </edge>
    <edge id=":cluster_829171827_890670350_6" function="internal">
        <lane id=":cluster_829171827_890670350_6_0" index="0" disallow="tram rail_urban rail rail_electric rail_fast ship" speed="6.59" length="9.18" shape="3462.24,1105.38 3461.64,1107.86 3461.95,1109.93 3463.17,1111.60 3465.30,1112.86"/>
    </edge>
    <edge id=":cluster_829171827_890670350_7" function="internal">
        <lane id=":cluster_829171827_890670350_7_0" index="0" disallow="tram rail_urban rail rail_electric rail_fast ship" speed="22.22" length="29.39" shape="3462.24,1105.38 3458.70,1112.64 3454.32,1119.89 3450.27,1126.26 3447.71,1130.89"/>
    </edge>
    <edge id=":cluster_829171827_890670350_8" function="internal">
        <lane id=":cluster_829171827_890670350_8_0" index="0" disallow="tram rail_urban rail rail_electric rail_fast ship" speed="9.65" length="21.65" shape="3459.26,1104.21 3455.98,1110.96 3452.39,1115.24 3448.49,1117.06 3444.29,1116.42"/>
    </edge>
    <edge id=":cluster_829171827_890670350_9" function="internal">
        <lane id=":cluster_829171827_890670350_9_0" index="0" disallow="tram rail_urban rail rail_electric rail_fast ship" speed="6.52" length="9.26" shape="3448.77,1105.99 3451.28,1106.67 3453.37,1106.41 3455.04,1105.20 3456.28,1103.04"/>
    </edge>
    <edge id=":cluster_829171827_890670350_10" function="internal">
        <lane id=":cluster_829171827_890670350_10_0" index="0" disallow="tram rail_urban rail rail_electric rail_fast ship" speed="27.78" length="17.95" shape="3448.77,1105.99 3465.30,1112.86"/>
        <lane id=":cluster_829171827_890670350_10_1" index="1" disallow="tram rail_urban rail rail_electric rail_fast ship" speed="27.78" length="17.95" shape="3447.50,1108.93 3464.08,1115.82"/>
        <lane id=":cluster_829171827_890670350_10_2" index="2" disallow="tram rail_urban rail rail_electric rail_fast ship" speed="27.78" length="17.95" shape="3446.24,1111.87 3462.87,1118.78"/>
    </edge>
    <edge id=":cluster_829171827_890670350_13" function="internal">
        <lane id=":cluster_829171827_890670350_13_0" index="0" disallow="tram rail_urban rail rail_electric rail_fast ship" speed="9.67" length="6.86" shape="3446.24,1111.87 3449.32,1114.32 3450.21,1117.11"/>
    </edge>
    <edge id=":cluster_829171827_890670350_14" function="internal">
        <lane id=":cluster_829171827_890670350_14_0" index="0" disallow="tram rail_urban rail rail_electric rail_fast ship" speed="4.27" length="4.55" shape="3446.24,1111.87 3447.46,1113.74 3447.54,1115.12 3446.82,1115.73"/>
    </edge>
    <edge id=":cluster_829171827_890670350_21" function="internal">
        <lane id=":cluster_829171827_890670350_21_0" index="0" disallow="tram rail_urban rail rail_electric rail_fast ship" speed="9.67" length="14.24" shape="3450.21,1117.11 3450.59,1118.31 3450.05,1123.83 3447.71,1130.89"/>
    </edge>
    <edge id=":cluster_829171827_890670350_22" function="internal">
        <lane id=":cluster_829171827_890670350_22_0" index="0" disallow="tram rail_urban rail rail_electric rail_fast ship" speed="4.27" length="2.68" shape="3446.82,1115.73 3446.48,1116.02 3444.29,1116.42"/>
    </edge>
    <edge id=":cluster_829171827_890670350_15" function="internal">
        <lane id=":cluster_829171827_890670350_15_0" index="0" disallow="tram rail_urban rail rail_electric rail_fast ship" speed="6.53" length="9.03" shape="3444.75,1129.66 3445.37,1127.27 3445.07,1125.24 3443.87,1123.59 3441.76,1122.30"/>
    </edge>
    <edge id=":cluster_829171827_890670350_16" function="internal">
        <lane id=":cluster_829171827_890670350_16_0" index="0" disallow="tram rail_urban rail rail_electric rail_fast ship" speed="22.22" length="29.01" shape="3444.75,1129.66 3456.28,1103.04"/>
    </edge>
    <edge id=":cluster_829171827_890670350_17" function="internal">
        <lane id=":cluster_829171827_890670350_17_0" index="0" disallow="tram rail_urban rail rail_electric rail_fast ship" speed="10.26" length="23.92" shape="3444.75,1129.66 3448.32,1123.11 3452.53,1119.12 3457.38,1117.67 3462.87,1118.78"/>
    </edge>
    <edge id=":cluster_829171827_890670350_18" function="internal">
        <lane id=":cluster_829171827_890670350_18_0" index="0" disallow="tram rail_urban rail rail_electric rail_fast ship" speed="3.65" length="4.67" shape="3444.75,1129.66 3445.95,1128.86 3446.84,1128.79 3447.43,1129.47 3447.71,1130.89"/>
    </edge>
    <edge id=":cluster_890670257_cluster_161411759_cluster_161411759_817484963_890670257_948231317_0" function="internal">
        <lane id=":cluster_890670257_cluster_161411759_cluster_161411759_817484963_890670257_948231317_0_0" index="0" disallow="tram rail_urban rail rail_electric rail_fast ship" speed="6.53" length="9.08" shape="2987.82,936.85 2985.38,936.30 2983.35,936.65 2981.74,937.91 2980.53,940.07"/>
    </edge>
    <edge id=":cluster_890670257_cluster_161411759_cluster_161411759_817484963_890670257_948231317_1" function="internal">
        <lane id=":cluster_890670257_cluster_161411759_cluster_161411759_817484963_890670257_948231317_1_0" index="0" disallow="tram rail_urban rail rail_electric rail_fast ship" speed="27.78" length="31.46" shape="2987.82,936.85 2958.53,925.61"/>
        <lane id=":cluster_890670257_cluster_161411759_cluster_161411759_817484963_890670257_948231317_1_1" index="1" disallow="tram rail_urban rail rail_electric rail_fast ship" speed="27.78" length="31.46" shape="2989.07,933.90 2959.69,922.63"/>
        <lane id=":cluster_890670257_cluster_161411759_cluster_161411759_817484963_890670257_948231317_1_2" index="2" disallow="tram rail_urban rail rail_electric rail_fast ship" speed="27.78" length="31.46" shape="2990.31,930.95 2960.85,919.65"/>
    </edge>
    <edge id=":cluster_890670257_cluster_161411759_cluster_161411759_817484963_890670257_948231317_4" function="internal">
        <lane id=":cluster_890670257_cluster_161411759_cluster_161411759_817484963_890670257_948231317_4_0" index="0" disallow="tram rail_urban rail rail_electric rail_fast ship" speed="11.44" length="31.31" shape="2991.56,928.00 2984.35,923.90 2980.37,918.30 2979.64,911.18 2982.14,902.54"/>
    </edge>
    <edge id=":cluster_890670257_cluster_161411759_cluster_161411759_817484963_890670257_948231317_5" function="internal">
        <lane id=":cluster_890670257_cluster_161411759_cluster_161411759_817484963_890670257_948231317_5_0" index="0" disallow="tram rail_urban rail rail_electric rail_fast ship" speed="6.46" length="9.21" shape="2993.96,907.73 2993.24,910.09 2993.51,912.11 2994.76,913.79 2997.01,915.12"/>
    </edge>
    <edge id=":cluster_890670257_cluster_161411759_cluster_161411759_817484963_890670257_948231317_6" function="internal">
        <lane id=":cluster_890670257_cluster_161411759_cluster_161411759_817484963_890670257_948231317_6_0" index="0" disallow="tram rail_urban rail rail_electric rail_fast ship" speed="27.78" length="35.26" shape="2993.96,907.73 2980.53,940.07"/>
        <lane id=":cluster_890670257_cluster_161411759_cluster_161411759_817484963_890670257_948231317_6_1" index="1" disallow="tram rail_urban rail rail_electric rail_fast ship" speed="27.78" length="35.26" shape="2991.03,906.44 2977.55,938.93"/>
        <lane id=":cluster_890670257_cluster_161411759_cluster_161411759_817484963_890670257_948231317_6_2" index="2" disallow="tram rail_urban rail rail_electric rail_fast ship" speed="27.78" length="35.26" shape="2988.10,905.16 2974.56,937.78"/>
        <lane id=":cluster_890670257_cluster_161411759_cluster_161411759_817484963_890670257_948231317_6_3" index="3" disallow="tram rail_urban rail rail_electric rail_fast ship" speed="27.78" length="35.26" shape="2988.10,905.16 2971.57,936.63"/>
    </edge>
    <edge id=":cluster_890670257_cluster_161411759_cluster_161411759_817484963_890670257_948231317_10" function="internal">
        <lane id=":cluster_890670257_cluster_161411759_cluster_161411759_817484963_890670257_948231317_10_0" index="0" disallow="tram rail_urban rail rail_electric rail_fast ship" speed="12.59" length="34.50" shape="2988.10,905.16 2982.60,913.99 2976.23,919.34 2968.98,921.23 2960.85,919.65"/>
    </edge>
    <edge id=":cluster_890670257_cluster_161411759_cluster_161411759_817484963_890670257_948231317_11" function="internal">
        <lane id=":cluster_890670257_cluster_161411759_cluster_161411759_817484963_890670257_948231317_11_0" index="0" disallow="tram rail_urban rail rail_electric rail_fast ship" speed="4.77" length="9.51" shape="2988.10,905.16 2985.63,906.74 2983.81,906.83 2982.65,905.43 2982.14,902.54"/>
    </edge>
    <edge id=":cluster_890670257_cluster_161411759_cluster_161411759_817484963_890670257_948231317_12" function="internal">
        <lane id=":cluster_890670257_cluster_161411759_cluster_161411759_817484963_890670257_948231317_12_0" index="0" disallow="tram rail_urban rail rail_electric rail_fast ship" speed="8.40" length="14.52" shape="2966.61,904.78 2971.02,905.74 2974.60,905.47 2977.32,903.97 2979.21,901.26"/>
    </edge>