<?xml version="1.0" encoding="UTF-8"?>

<!-- generated on 2022-08-18 12:38:20 by Eclipse SUMO netedit Version 1.10.0
<configuration xmlns:xsi="http://www.w3.org/2001/XMLSchema-instance" xsi:noNamespaceSchemaLocation="http://sumo.dlr.de/xsd/netconvertConfiguration.xsd">

    <input>
        <sumo-net-file value="Sim/net/Izt-HrB.net.xml"/>
    </input>

    <output>
        <output-file value="Sim/net/Izt-HrB.net.xml"/>
        <output.street-names value="true"/>
    </output>

    <processing>
        <geometry.min-radius.fix.railways value="false"/>
        <geometry.max-grade.fix value="false"/>
        <offset.disable-normalization value="true"/>
        <lefthand value="false"/>
    </processing>

    <junctions>
        <no-turnarounds value="true"/>
        <junctions.corner-detail value="5"/>
        <junctions.limit-turn-speed value="5.5"/>
        <rectangular-lane-cut value="false"/>
    </junctions>

    <pedestrian>
        <walkingareas value="false"/>
    </pedestrian>

    <report>
        <aggregate-warnings value="5"/>
    </report>

</configuration>
-->

<net version="1.9" junctionCornerDetail="5" limitTurnSpeed="5.50" xmlns:xsi="http://www.w3.org/2001/XMLSchema-instance" xsi:noNamespaceSchemaLocation="http://sumo.dlr.de/xsd/net_file.xsd">

    <location netOffset="-314340.44,-4667081.10" convBoundary="694.64,210.74,820.01,761.33" origBoundary="24.753470,42.133910,24.771969,42.145475" projParameter="+proj=utm +zone=35 +ellps=WGS84 +datum=WGS84 +units=m +no_defs"/>

    <type id="highway.bridleway" priority="1" numLanes="1" speed="2.78" allow="pedestrian" oneway="1" width="2.00"/>
    <type id="highway.bus_guideway" priority="1" numLanes="1" speed="27.78" allow="bus" oneway="1"/>
    <type id="highway.cycleway" priority="1" numLanes="1" speed="8.33" allow="bicycle" oneway="1" width="1.00"/>
    <type id="highway.footway" priority="1" numLanes="1" speed="2.78" allow="pedestrian" oneway="1" width="2.00"/>
    <type id="highway.ford" priority="1" numLanes="1" speed="2.78" allow="army" oneway="1"/>
    <type id="highway.living_street" priority="2" numLanes="1" speed="2.78" disallow="tram rail_urban rail rail_electric rail_fast ship" oneway="1"/>
    <type id="highway.motorway" priority="14" numLanes="2" speed="39.44" allow="private emergency authority army vip passenger hov taxi bus coach delivery truck trailer motorcycle evehicle custom1 custom2" oneway="1"/>
    <type id="highway.motorway_link" priority="9" numLanes="1" speed="22.22" allow="private emergency authority army vip passenger hov taxi bus coach delivery truck trailer motorcycle evehicle custom1 custom2" oneway="1"/>
    <type id="highway.path" priority="1" numLanes="1" speed="2.78" allow="pedestrian bicycle" oneway="1" width="2.00"/>
    <type id="highway.pedestrian" priority="1" numLanes="1" speed="2.78" allow="pedestrian" oneway="1" width="2.00"/>
    <type id="highway.primary" priority="12" numLanes="2" speed="27.78" disallow="tram rail_urban rail rail_electric rail_fast ship" oneway="1"/>
    <type id="highway.primary_link" priority="7" numLanes="1" speed="22.22" disallow="tram rail_urban rail rail_electric rail_fast ship" oneway="1"/>
    <type id="highway.raceway" priority="15" numLanes="2" speed="83.33" allow="vip" oneway="1"/>
    <type id="highway.residential" priority="3" numLanes="1" speed="13.89" disallow="tram rail_urban rail rail_electric rail_fast ship" oneway="1"/>
    <type id="highway.secondary" priority="11" numLanes="1" speed="27.78" disallow="tram rail_urban rail rail_electric rail_fast ship" oneway="1"/>
    <type id="highway.secondary_link" priority="6" numLanes="1" speed="22.22" disallow="tram rail_urban rail rail_electric rail_fast ship" oneway="1"/>
    <type id="highway.service" priority="1" numLanes="1" speed="5.56" allow="pedestrian delivery bicycle" oneway="1"/>
    <type id="highway.stairs" priority="1" numLanes="1" speed="1.39" allow="pedestrian" oneway="1" width="2.00"/>
    <type id="highway.step" priority="1" numLanes="1" speed="1.39" allow="pedestrian" oneway="1" width="2.00"/>
    <type id="highway.steps" priority="1" numLanes="1" speed="1.39" allow="pedestrian" oneway="1" width="2.00"/>
    <type id="highway.tertiary" priority="10" numLanes="1" speed="22.22" disallow="tram rail_urban rail rail_electric rail_fast ship" oneway="1"/>
    <type id="highway.tertiary_link" priority="5" numLanes="1" speed="22.22" disallow="tram rail_urban rail rail_electric rail_fast ship" oneway="1"/>
    <type id="highway.track" priority="1" numLanes="1" speed="5.56" allow="pedestrian motorcycle moped bicycle" oneway="1"/>
    <type id="highway.trunk" priority="13" numLanes="2" speed="27.78" disallow="pedestrian bicycle tram rail_urban rail rail_electric rail_fast ship" oneway="1"/>
    <type id="highway.trunk_link" priority="8" numLanes="1" speed="22.22" disallow="pedestrian bicycle tram rail_urban rail rail_electric rail_fast ship" oneway="1"/>
    <type id="highway.unclassified" priority="4" numLanes="1" speed="13.89" disallow="tram rail_urban rail rail_electric rail_fast ship" oneway="1"/>
    <type id="highway.unsurfaced" priority="1" numLanes="1" speed="8.33" disallow="tram rail_urban rail rail_electric rail_fast ship" oneway="1"/>
    <type id="railway.highspeed" priority="21" numLanes="1" speed="69.44" allow="rail_fast" oneway="1"/>
    <type id="railway.light_rail" priority="19" numLanes="1" speed="27.78" allow="rail_urban" oneway="1"/>
    <type id="railway.preserved" priority="16" numLanes="1" speed="27.78" allow="rail" oneway="1"/>
    <type id="railway.rail" priority="20" numLanes="1" speed="44.44" allow="rail" oneway="1"/>
    <type id="railway.subway" priority="18" numLanes="1" speed="27.78" allow="rail_urban" oneway="1"/>
    <type id="railway.tram" priority="17" numLanes="1" speed="13.89" allow="tram" oneway="1"/>

    <edge id=":817497123_0" function="internal">
        <lane id=":817497123_0_0" index="0" disallow="tram rail_urban rail rail_electric rail_fast ship" speed="16.82" length="11.19" shape="774.38,284.82 775.12,281.56 775.22,279.17 774.85,276.86 774.18,273.82"/>
    </edge>
    <edge id=":817497123_1" function="internal">
        <lane id=":817497123_1_0" index="0" disallow="tram rail_urban rail rail_electric rail_fast ship" speed="27.78" length="11.72" shape="777.45,285.70 778.17,282.29 778.31,279.88 778.48,277.47 779.30,274.10"/>
        <lane id=":817497123_1_1" index="1" disallow="tram rail_urban rail rail_electric rail_fast ship" speed="27.78" length="11.72" shape="777.45,285.70 778.64,282.45 779.83,280.37 781.06,278.29 782.35,275.07"/>
        <lane id=":817497123_1_2" index="2" disallow="tram rail_urban rail rail_electric rail_fast ship" speed="27.78" length="11.72" shape="780.53,286.58 781.71,283.36 782.90,281.29 784.11,279.24 785.40,276.05"/>
    </edge>
    <edge id=":817497162_0" function="internal">
        <lane id=":817497162_0_0" index="0" disallow="tram rail_urban rail rail_electric rail_fast ship" speed="15.88" length="18.12" shape="763.01,250.00 759.98,247.69 756.60,245.49 752.33,243.90 746.63,243.44"/>
    </edge>
    <edge id=":817497162_1" function="internal">
        <lane id=":817497162_1_0" index="0" disallow="tram rail_urban rail rail_electric rail_fast ship" speed="27.78" length="18.06" shape="764.49,244.78 759.18,244.34 755.56,243.81 751.93,243.43 746.63,243.44"/>
        <lane id=":817497162_1_1" index="1" disallow="tram rail_urban rail rail_electric rail_fast ship" speed="27.78" length="18.06" shape="764.59,241.58 759.22,241.13 755.54,240.61 751.87,240.23 746.49,240.25"/>
    </edge>
    <edge id=":817497162_3" function="internal">
        <lane id=":817497162_3_0" index="0" disallow="tram rail_urban rail rail_electric rail_fast ship" speed="27.78" length="18.52" shape="746.22,233.85 751.74,233.79 755.52,234.08 759.29,234.49 764.82,234.83"/>
        <lane id=":817497162_3_1" index="1" disallow="tram rail_urban rail rail_electric rail_fast ship" speed="27.78" length="18.52" shape="746.36,237.05 751.81,236.99 755.53,237.28 759.26,237.69 764.71,238.03"/>
    </edge>
    <edge id=":cluster_817485017_817497129_0" function="internal">
        <lane id=":cluster_817485017_817497129_0_0" index="0" disallow="tram rail_urban rail rail_electric rail_fast ship" speed="27.78" length="19.71" shape="814.73,240.28 812.28,245.44 809.78,248.60 807.37,251.80 805.20,257.04"/>
        <lane id=":cluster_817485017_817497129_0_1" index="1" disallow="tram rail_urban rail rail_electric rail_fast ship" speed="27.78" length="19.71" shape="811.74,239.11 809.27,244.36 806.74,247.58 804.32,250.83 802.12,256.16"/>
        <lane id=":cluster_817485017_817497129_0_2" index="2" disallow="tram rail_urban rail rail_electric rail_fast ship" speed="27.78" length="19.71" shape="808.76,237.95 806.26,243.27 803.71,246.55 801.26,249.86 799.05,255.28"/>
    </edge>
    <edge id=":cluster_817485017_817497129_3" function="internal">
        <lane id=":cluster_817485017_817497129_3_0" index="0" disallow="tram rail_urban rail rail_electric rail_fast ship" speed="11.81" length="25.14" shape="805.78,236.78 803.45,239.64 798.78,241.53 791.77,242.47 782.43,242.44"/>
    </edge>
    <edge id=":cluster_817485017_817497129_4" function="internal">
        <lane id=":cluster_817485017_817497129_4_0" index="0" disallow="tram rail_urban rail rail_electric rail_fast ship" speed="7.70" length="9.68" shape="782.76,235.42 785.46,235.20 787.66,234.37 789.35,232.91 790.54,230.83"/>
        <lane id=":cluster_817485017_817497129_4_1" index="1" disallow="tram rail_urban rail rail_electric rail_fast ship" speed="8.47" length="11.88" shape="782.76,235.42 786.92,235.32 790.10,234.71 792.30,233.61 793.52,231.99"/>
        <lane id=":cluster_817485017_817497129_4_2" index="2" disallow="tram rail_urban rail rail_electric rail_fast ship" speed="9.25" length="14.30" shape="782.76,235.42 788.38,235.43 792.54,235.06 795.25,234.30 796.50,233.16"/>
    </edge>
    <edge id=":cluster_817485017_817497129_7" function="internal">
        <lane id=":cluster_817485017_817497129_7_0" index="0" disallow="tram rail_urban rail rail_electric rail_fast ship" speed="10.87" length="32.20" shape="782.61,238.61 792.37,239.59 799.33,242.33 802.81,247.60 802.12,256.16"/>
        <lane id=":cluster_817485017_817497129_7_1" index="1" disallow="tram rail_urban rail rail_electric rail_fast ship" speed="10.30" length="28.73" shape="782.61,238.61 791.17,239.64 797.05,242.42 799.82,247.46 799.05,255.28"/>
    </edge>
    <edge id=":cluster_817485017_817497129_9" function="internal">
        <lane id=":cluster_817485017_817497129_9_0" index="0" disallow="tram rail_urban rail rail_electric rail_fast ship" speed="27.78" length="20.60" shape="786.50,251.68 793.52,231.99"/>
        <lane id=":cluster_817485017_817497129_9_1" index="1" disallow="tram rail_urban rail rail_electric rail_fast ship" speed="27.78" length="20.60" shape="789.58,252.56 796.50,233.16"/>
        <lane id=":cluster_817485017_817497129_9_2" index="2" disallow="tram rail_urban rail rail_electric rail_fast ship" speed="27.78" length="20.60" shape="792.66,253.44 799.48,234.32"/>
    </edge>

    <edge id="-161082236#1" from="1090750520" to="817497162" name="бул. Христо Ботев" priority="12" type="highway.primary" length="30.00">
        <lane id="-161082236#1_0" index="0" disallow="tram rail_urban rail rail_electric rail_fast ship" speed="27.78" length="30.00" shape="694.44,236.03 746.22,233.85">
            <param key="origId" value="161082236"/>
        </lane>
        <lane id="-161082236#1_1" index="1" disallow="tram rail_urban rail rail_electric rail_fast ship" speed="27.78" length="30.00" shape="694.57,239.23 746.36,237.05">
            <param key="origId" value="161082236"/>
        </lane>
    </edge>
    <edge id="-67676489#1" from="817497162" to="cluster_817485017_817497129" name="бул. Христо Ботев" priority="12" type="highway.primary" length="20.00" shape="741.36,238.86 784.33,240.27">
        <lane id="-67676489#1_0" index="0" disallow="tram rail_urban rail rail_electric rail_fast ship" speed="27.78" length="20.00" shape="764.82,234.83 782.76,235.42">
            <param key="origId" value="67676489"/>
        </lane>
        <lane id="-67676489#1_1" index="1" disallow="tram rail_urban rail rail_electric rail_fast ship" speed="27.78" length="20.00" shape="764.71,238.03 782.61,238.61">
            <param key="origId" value="67676489"/>
        </lane>
        <param key="origTo" value="817485017"/>
    </edge>
    <edge id="136100505#0" from="gneJ1" to="cluster_817485017_817497129" name="бул. Източен" priority="12" type="highway.primary" spreadType="center" length="20.00" shape="820.01,216.45 810.83,236.86 808.89,242.46">
        <lane id="136100505#0_0" index="0" disallow="tram rail_urban rail rail_electric rail_fast ship" speed="27.78" length="20.00" shape="824.39,218.42 815.30,238.63 814.73,240.28">
            <param key="origId" value="136100505 136100505 1037186337"/>
        </lane>
        <lane id="136100505#0_1" index="1" disallow="tram rail_urban rail rail_electric rail_fast ship" speed="27.78" length="20.00" shape="821.47,217.11 812.32,237.45 811.74,239.11">
            <param key="origId" value="136100505 136100505 1037186337"/>
        </lane>
        <lane id="136100505#0_2" index="2" disallow="tram rail_urban rail rail_electric rail_fast ship" speed="27.78" length="20.00" shape="818.55,215.79 809.34,236.27 808.76,237.95">
            <param key="origId" value="136100505 136100505 1037186337"/>
        </lane>
        <lane id="136100505#0_3" index="3" disallow="tram rail_urban rail rail_electric rail_fast ship" speed="27.78" length="20.00" shape="815.63,214.48 806.36,235.09 805.78,236.78">
            <param key="origId" value="136100505 136100505 1037186337"/>
        </lane>
        <param key="origTo" value="817497129"/>
    </edge>
    <edge id="136100508#6" from="576941722" to="817497123" name="бул. Източен" priority="12" type="highway.primary" spreadType="center" length="30.00" shape="766.45,324.21 778.78,281.05">
        <lane id="136100508#6_0" index="0" disallow="tram rail_urban rail rail_electric rail_fast ship" speed="27.78" length="30.00" shape="763.50,322.88 774.38,284.82">
            <param key="origId" value="136100508"/>
        </lane>
        <lane id="136100508#6_1" index="1" disallow="tram rail_urban rail rail_electric rail_fast ship" speed="27.78" length="30.00" shape="766.58,323.76 777.45,285.70">
            <param key="origId" value="136100508"/>
        </lane>
        <lane id="136100508#6_2" index="2" disallow="tram rail_urban rail rail_electric rail_fast ship" speed="27.78" length="30.00" shape="769.66,324.64 780.53,286.58">
            <param key="origId" value="136100508"/>
        </lane>
    </edge>
    <edge id="161082231#0" from="817497123" to="cluster_817485017_817497129" name="бул. Източен" priority="12" type="highway.primary" spreadType="center" length="20.00" shape="780.37,281.24 790.97,248.24">
        <lane id="161082231#0_0" index="0" disallow="tram rail_urban rail rail_electric rail_fast ship" speed="27.78" length="20.00" shape="779.30,274.10 786.50,251.68">
            <param key="origId" value="161082231"/>
        </lane>
        <lane id="161082231#0_1" index="1" disallow="tram rail_urban rail rail_electric rail_fast ship" speed="27.78" length="20.00" shape="782.35,275.07 789.58,252.56">
            <param key="origId" value="161082231"/>
        </lane>
        <lane id="161082231#0_2" index="2" disallow="tram rail_urban rail rail_electric rail_fast ship" speed="27.78" length="20.00" shape="785.40,276.05 792.66,253.44">
            <param key="origId" value="161082231"/>
        </lane>
        <param key="origTo" value="817485017"/>
    </edge>
    <edge id="161082232#0" from="cluster_817485017_817497129" to="576971401" name="бул. Източен" priority="12" type="highway.primary" spreadType="center" length="50.00" shape="803.58,251.09 783.31,321.72">
        <lane id="161082232#0_0" index="0" disallow="tram rail_urban rail rail_electric rail_fast ship" speed="27.78" length="50.00" shape="805.20,257.04 786.39,322.60">
            <param key="origId" value="161082232"/>
        </lane>
        <lane id="161082232#0_1" index="1" disallow="tram rail_urban rail rail_electric rail_fast ship" speed="27.78" length="50.00" shape="802.12,256.16 783.31,321.72">
            <param key="origId" value="161082232"/>
        </lane>
        <lane id="161082232#0_2" index="2" disallow="tram rail_urban rail rail_electric rail_fast ship" speed="27.78" length="50.00" shape="799.05,255.28 780.23,320.84">
            <param key="origId" value="161082232"/>
        </lane>
        <param key="origFrom" value="817497129"/>
    </edge>
    <edge id="161082236#0" from="817497162" to="1090750520" name="бул. Христо Ботев" priority="12" type="highway.primary" length="30.00">
        <lane id="161082236#0_0" index="0" disallow="tram rail_urban rail rail_electric rail_fast ship" speed="27.78" length="30.00" shape="746.63,243.44 694.84,245.63">
            <param key="origId" value="161082236"/>
        </lane>
        <lane id="161082236#0_1" index="1" disallow="tram rail_urban rail rail_electric rail_fast ship" speed="27.78" length="30.00" shape="746.49,240.25 694.71,242.43">
            <param key="origId" value="161082236"/>
        </lane>
    </edge>
    <edge id="161137081#0" from="cluster_817485017_817497129" to="cluster_575651336_948231317" name="бул. Източен" priority="12" type="highway.primary" spreadType="center" length="20.00" shape="793.30,236.95 796.60,228.50 799.92,221.53 803.48,214.08">
        <lane id="161137081#0_0" index="0" disallow="tram rail_urban rail rail_electric rail_fast ship" speed="27.78" length="20.00" shape="790.54,230.83 792.19,226.59 795.59,219.46 800.70,208.76">
            <param key="origId" value="161137081"/>
        </lane>
        <lane id="161137081#0_1" index="1" disallow="tram rail_urban rail rail_electric rail_fast ship" speed="27.78" length="20.00" shape="793.52,231.99 795.13,227.86 798.48,220.84 803.59,210.14">
            <param key="origId" value="161137081"/>
        </lane>
        <lane id="161137081#0_2" index="2" disallow="tram rail_urban rail rail_electric rail_fast ship" speed="27.78" length="20.00" shape="796.50,233.16 798.07,229.14 801.36,222.22 806.48,211.52">
            <param key="origId" value="161137081"/>
        </lane>
        <lane id="161137081#0_3" index="3" disallow="tram rail_urban rail rail_electric rail_fast ship" speed="27.78" length="20.00" shape="799.48,234.32 801.01,230.41 804.25,223.60 809.36,212.90">
            <param key="origId" value="161137081"/>
        </lane>
        <param key="origFrom" value="817485017"/>
    </edge>
    <edge id="67676486#0" from="817497123" to="817497162" priority="7" type="highway.primary_link" spreadType="center" length="30.00" shape="775.60,280.68 770.80,257.53 767.46,253.19 758.16,246.52 741.36,238.86">
        <lane id="67676486#0_0" index="0" disallow="tram rail_urban rail rail_electric rail_fast ship" speed="22.22" length="30.00" shape="774.18,273.82 770.80,257.53 767.46,253.19 763.01,250.00">
            <param key="origId" value="67676486"/>
        </lane>
    </edge>
    <edge id="67676489#0" from="cluster_817485017_817497129" to="817497162" name="бул. Христо Ботев" priority="12" type="highway.primary" length="20.00" shape="784.33,240.93 741.36,238.86">
        <lane id="67676489#0_0" index="0" disallow="tram rail_urban rail rail_electric rail_fast ship" speed="27.78" length="20.00" shape="782.27,245.64 764.49,244.78">
            <param key="origId" value="67676489"/>
        </lane>
        <lane id="67676489#0_1" index="1" disallow="tram rail_urban rail rail_electric rail_fast ship" speed="27.78" length="20.00" shape="782.43,242.44 764.59,241.58">
            <param key="origId" value="67676489"/>
        </lane>
        <param key="origFrom" value="817485017"/>
    </edge>

    <tlLogic id="cluster_817485017_817497129" type="static" programID="0" offset="0">
        <phase duration="33" state="GGGrrrrrrrGGGg"/>
        <phase duration="6"  state="yyyrrrrrrryyyy"/>
        <phase duration="6"  state="GGGGGrrrrrrrrr"/>
        <phase duration="6"  state="yyyyyrrrrrrrrr"/>
        <phase duration="33" state="rrrrrGGGGGrrrr"/>
        <phase duration="6"  state="rrrrryyyyyrrrr"/>
    </tlLogic>

    <junction id="1090750520" type="dead_end" x="694.64" y="240.83" incLanes="161082236#0_0 161082236#0_1" intLanes="" shape="694.64,240.83 694.91,247.22 694.64,240.83"/>
    <junction id="570652652" type="dead_end" x="815.31" y="761.33" incLanes="" intLanes="" shape="815.31,761.33"/>
    <junction id="576941014" type="dead_end" x="798.33" y="757.84" incLanes="" intLanes="" shape="798.33,757.84"/>
    <junction id="576941722" type="dead_end" x="768.05" y="324.18" incLanes="" intLanes="" shape="771.19,325.08 761.96,322.44"/>
    <junction id="576971401" type="dead_end" x="783.31" y="321.72" incLanes="161082232#0_0 161082232#0_1 161082232#0_2" intLanes="" shape="787.92,323.04 778.70,320.40"/>
    <junction id="817497123" type="priority" x="780.37" y="281.24" incLanes="136100508#6_0 136100508#6_1 136100508#6_2" intLanes=":817497123_0_0 :817497123_1_0 :817497123_1_1 :817497123_1_2" shape="786.92,276.54 777.78,273.61 775.74,273.50 772.61,274.15 773.44,277.93 773.64,279.30 773.63,280.65 773.38,282.26 772.84,284.38 782.07,287.02 782.85,284.70 783.64,283.06 784.43,281.76 785.23,280.47 786.06,278.84">
        <request index="0" response="0000" foes="0000" cont="0"/>
        <request index="1" response="0000" foes="0000" cont="0"/>
        <request index="2" response="0000" foes="0000" cont="0"/>
        <request index="3" response="0000" foes="0000" cont="0"/>
    </junction>
    <junction id="817497162" type="priority" x="741.36" y="238.86" incLanes="67676486#0_0 67676489#0_0 67676489#0_1 -161082236#1_0 -161082236#1_1" intLanes=":817497162_0_0 :817497162_1_0 :817497162_1_1 :817497162_3_0 :817497162_3_1" shape="762.33,251.48 763.69,248.52 764.44,246.38 764.87,233.23 746.15,232.25 746.69,245.04 750.31,245.05 752.98,245.46 755.10,246.28 757.10,247.54 759.38,249.27">
        <request index="0" response="00110" foes="00110" cont="0"/>
        <request index="1" response="00000" foes="00001" cont="0"/>
        <request index="2" response="00000" foes="00001" cont="0"/>
        <request index="3" response="00000" foes="00000" cont="0"/>
        <request index="4" response="00000" foes="00000" cont="0"/>
        <param key="keepClear" value="false"/>
    </junction>
    <junction id="cluster_575651336_948231317" type="dead_end" x="804.84" y="210.74" incLanes="161137081#0_0 161137081#0_1 161137081#0_2 161137081#0_3" intLanes="" shape="799.26,208.07 810.81,213.59"/>
    <junction id="cluster_817485017_817497129" type="traffic_light" x="798.93" y="243.19" incLanes="136100505#0_0 136100505#0_1 136100505#0_2 136100505#0_3 -67676489#1_0 -67676489#1_1 161082231#0_0 161082231#0_1 161082231#0_2" intLanes=":cluster_817485017_817497129_0_0 :cluster_817485017_817497129_0_1 :cluster_817485017_817497129_0_2 :cluster_817485017_817497129_3_0 :cluster_817485017_817497129_4_0 :cluster_817485017_817497129_4_1 :cluster_817485017_817497129_4_2 :cluster_817485017_817497129_7_0 :cluster_817485017_817497129_7_1 :cluster_817485017_817497129_9_0 :cluster_817485017_817497129_9_1 :cluster_817485017_817497129_9_2" shape="816.22,240.86 789.05,230.25 787.71,232.30 786.77,233.00 785.64,233.49 784.33,233.76 782.84,233.82 782.19,247.23 784.28,247.76 784.88,248.33 785.20,249.10 785.23,250.07 784.97,251.24 806.74,257.49 808.14,253.69 809.67,251.10 811.29,249.12 812.95,247.15 814.61,244.59">
        <request index="0"  response="000000000000" foes="000110000000" cont="0"/>
        <request index="1"  response="000000000000" foes="000110000000" cont="0"/>
        <request index="2"  response="000000000000" foes="000110000000" cont="0"/>
        <request index="3"  response="111000000000" foes="111110000000" cont="0"/>
        <request index="4"  response="111000000000" foes="111000000000" cont="0"/>
        <request index="5"  response="111000000000" foes="111000000000" cont="0"/>
        <request index="6"  response="111000000000" foes="111000000000" cont="0"/>
        <request index="7"  response="111000001111" foes="111000001111" cont="0"/>
        <request index="8"  response="111000001111" foes="111000001111" cont="0"/>
        <request index="9"  response="000000000000" foes="000111111000" cont="0"/>
        <request index="10" response="000000000000" foes="000111111000" cont="0"/>
        <request index="11" response="000000000000" foes="000111111000" cont="0"/>
    </junction>
    <junction id="gneJ1" type="dead_end" x="820.01" y="216.45" incLanes="" intLanes="" shape="814.17,213.82 825.85,219.08"/>

    <connection from="-161082236#1" to="-67676489#1" fromLane="0" toLane="0" keepClear="0" via=":817497162_3_0" dir="s" state="M"/>
    <connection from="-161082236#1" to="-67676489#1" fromLane="1" toLane="1" keepClear="0" via=":817497162_3_1" dir="s" state="M"/>
    <connection from="-67676489#1" to="161137081#0" fromLane="0" toLane="0" via=":cluster_817485017_817497129_4_0" tl="cluster_817485017_817497129" linkIndex="5" dir="r" state="o"/>
    <connection from="-67676489#1" to="161137081#0" fromLane="0" toLane="1" via=":cluster_817485017_817497129_4_1" tl="cluster_817485017_817497129" linkIndex="6" dir="r" state="o"/>
    <connection from="-67676489#1" to="161137081#0" fromLane="0" toLane="2" via=":cluster_817485017_817497129_4_2" tl="cluster_817485017_817497129" linkIndex="7" dir="r" state="o"/>
    <connection from="-67676489#1" to="161082232#0" fromLane="1" toLane="1" via=":cluster_817485017_817497129_7_0" tl="cluster_817485017_817497129" linkIndex="8" dir="l" state="o"/>
    <connection from="-67676489#1" to="161082232#0" fromLane="1" toLane="2" via=":cluster_817485017_817497129_7_1" tl="cluster_817485017_817497129" linkIndex="9" dir="l" state="o"/>
    <connection from="136100505#0" to="161082232#0" fromLane="0" toLane="0" via=":cluster_817485017_817497129_0_0" tl="cluster_817485017_817497129" linkIndex="0" dir="s" state="O"/>
    <connection from="136100505#0" to="161082232#0" fromLane="1" toLane="1" via=":cluster_817485017_817497129_0_1" tl="cluster_817485017_817497129" linkIndex="1" dir="s" state="O"/>
    <connection from="136100505#0" to="161082232#0" fromLane="2" toLane="2" via=":cluster_817485017_817497129_0_2" tl="cluster_817485017_817497129" linkIndex="2" dir="s" state="O"/>
    <connection from="136100505#0" to="67676489#0" fromLane="3" toLane="1" via=":cluster_817485017_817497129_3_0" tl="cluster_817485017_817497129" linkIndex="3" dir="l" state="o"/>
    <connection from="136100508#6" to="67676486#0" fromLane="0" toLane="0" keepClear="0" via=":817497123_0_0" dir="R" state="M"/>
    <connection from="136100508#6" to="161082231#0" fromLane="1" toLane="0" via=":817497123_1_0" dir="s" state="M"/>
    <connection from="136100508#6" to="161082231#0" fromLane="1" toLane="1" keepClear="0" via=":817497123_1_1" dir="s" state="M"/>
    <connection from="136100508#6" to="161082231#0" fromLane="2" toLane="2" keepClear="0" via=":817497123_1_2" dir="s" state="M"/>
    <connection from="161082231#0" to="161137081#0" fromLane="0" toLane="1" via=":cluster_817485017_817497129_9_0" tl="cluster_817485017_817497129" linkIndex="10" dir="s" state="O"/>
    <connection from="161082231#0" to="161137081#0" fromLane="1" toLane="2" via=":cluster_817485017_817497129_9_1" tl="cluster_817485017_817497129" linkIndex="11" dir="s" state="O"/>
    <connection from="161082231#0" to="161137081#0" fromLane="2" toLane="3" via=":cluster_817485017_817497129_9_2" tl="cluster_817485017_817497129" linkIndex="12" dir="s" state="O"/>
    <connection from="67676486#0" to="161082236#0" fromLane="0" toLane="0" keepClear="0" via=":817497162_0_0" dir="s" state="m"/>
    <connection from="67676489#0" to="161082236#0" fromLane="0" toLane="0" keepClear="0" via=":817497162_1_0" dir="s" state="M"/>
    <connection from="67676489#0" to="161082236#0" fromLane="1" toLane="1" keepClear="0" via=":817497162_1_1" dir="s" state="M"/>

    <connection from=":817497123_0" to="67676486#0" fromLane="0" toLane="0" dir="R" state="M"/>
    <connection from=":817497123_1" to="161082231#0" fromLane="0" toLane="0" dir="s" state="M"/>
    <connection from=":817497123_1" to="161082231#0" fromLane="1" toLane="1" dir="s" state="M"/>
    <connection from=":817497123_1" to="161082231#0" fromLane="2" toLane="2" dir="s" state="M"/>
    <connection from=":817497162_0" to="161082236#0" fromLane="0" toLane="0" dir="s" state="M"/>
    <connection from=":817497162_1" to="161082236#0" fromLane="0" toLane="0" dir="s" state="M"/>
    <connection from=":817497162_1" to="161082236#0" fromLane="1" toLane="1" dir="s" state="M"/>
    <connection from=":817497162_3" to="-67676489#1" fromLane="0" toLane="0" dir="s" state="M"/>
    <connection from=":817497162_3" to="-67676489#1" fromLane="1" toLane="1" dir="s" state="M"/>
    <connection from=":cluster_817485017_817497129_0" to="161082232#0" fromLane="0" toLane="0" dir="s" state="M"/>
    <connection from=":cluster_817485017_817497129_0" to="161082232#0" fromLane="1" toLane="1" dir="s" state="M"/>
    <connection from=":cluster_817485017_817497129_0" to="161082232#0" fromLane="2" toLane="2" dir="s" state="M"/>
    <connection from=":cluster_817485017_817497129_3" to="67676489#0" fromLane="0" toLane="1" dir="l" state="M"/>
    <connection from=":cluster_817485017_817497129_4" to="161137081#0" fromLane="0" toLane="0" dir="r" state="M"/>
    <connection from=":cluster_817485017_817497129_4" to="161137081#0" fromLane="1" toLane="1" dir="r" state="M"/>
    <connection from=":cluster_817485017_817497129_4" to="161137081#0" fromLane="2" toLane="2" dir="r" state="M"/>
    <connection from=":cluster_817485017_817497129_7" to="161082232#0" fromLane="0" toLane="1" dir="l" state="M"/>