<?xml version="1.0" encoding="UTF-8"?>

<!-- generated on 2022-12-06 13:59:23 by Eclipse SUMO netconvert Version 1.10.0
<configuration xmlns:xsi="http://www.w3.org/2001/XMLSchema-instance" xsi:noNamespaceSchemaLocation="http://sumo.dlr.de/xsd/netconvertConfiguration.xsd">

    <input>
        <sumo-net-file value="largeR.net.xml"/>
    </input>

    <output>
        <output-file value="largeRup.net.xml"/>
        <output.street-names value="true"/>
    </output>

    <processing>
        <geometry.min-radius.fix.railways value="false"/>
        <geometry.max-grade.fix value="false"/>
        <offset.disable-normalization value="true"/>
        <lefthand value="false"/>
    </processing>

    <edge_removal>
        <keep-edges.in-boundary value="2077.84,3487.94,5349.52,1934.99"/>
    </edge_removal>

    <junctions>
        <no-turnarounds value="true"/>
        <junctions.corner-detail value="5"/>
        <junctions.limit-turn-speed value="5.5"/>
        <rectangular-lane-cut value="false"/>
    </junctions>

    <pedestrian>
        <walkingareas value="false"/>
    </pedestrian>

    <report>
        <aggregate-warnings value="5"/>
    </report>

</configuration>
-->

<net version="1.9" junctionCornerDetail="5" limitTurnSpeed="5.50" xmlns:xsi="http://www.w3.org/2001/XMLSchema-instance" xsi:noNamespaceSchemaLocation="http://sumo.dlr.de/xsd/net_file.xsd">

    <location netOffset="-312195.61,-4666326.23" convBoundary="2257.45,1567.01,4841.39,2850.02" origBoundary="24.725718,42.117759,24.792474,42.155549" projParameter="+proj=utm +zone=35 +ellps=WGS84 +datum=WGS84 +units=m +no_defs"/>

    <type id="highway.bridleway" priority="1" numLanes="1" speed="2.78" allow="pedestrian" oneway="1" width="2.00"/>
    <type id="highway.bus_guideway" priority="1" numLanes="1" speed="27.78" allow="bus" oneway="1"/>
    <type id="highway.cycleway" priority="1" numLanes="1" speed="8.33" allow="bicycle" oneway="1" width="1.00"/>
    <type id="highway.footway" priority="1" numLanes="1" speed="2.78" allow="pedestrian" oneway="1" width="2.00"/>
    <type id="highway.ford" priority="1" numLanes="1" speed="2.78" allow="army" oneway="1"/>
    <type id="highway.living_street" priority="2" numLanes="1" speed="2.78" disallow="tram rail_urban rail rail_electric rail_fast ship" oneway="1"/>
    <type id="highway.motorway" priority="14" numLanes="2" speed="39.44" allow="private emergency authority army vip passenger hov taxi bus coach delivery truck trailer motorcycle evehicle custom1 custom2" oneway="1"/>
    <type id="highway.motorway_link" priority="9" numLanes="1" speed="22.22" allow="private emergency authority army vip passenger hov taxi bus coach delivery truck trailer motorcycle evehicle custom1 custom2" oneway="1"/>
    <type id="highway.path" priority="1" numLanes="1" speed="2.78" allow="pedestrian bicycle" oneway="1" width="2.00"/>
    <type id="highway.pedestrian" priority="1" numLanes="1" speed="2.78" allow="pedestrian" oneway="1" width="2.00"/>
    <type id="highway.primary" priority="12" numLanes="2" speed="27.78" disallow="tram rail_urban rail rail_electric rail_fast ship" oneway="1"/>
    <type id="highway.primary_link" priority="7" numLanes="1" speed="22.22" disallow="tram rail_urban rail rail_electric rail_fast ship" oneway="1"/>
    <type id="highway.raceway" priority="15" numLanes="2" speed="83.33" allow="vip" oneway="1"/>
    <type id="highway.residential" priority="3" numLanes="1" speed="13.89" disallow="tram rail_urban rail rail_electric rail_fast ship" oneway="1"/>
    <type id="highway.secondary" priority="11" numLanes="1" speed="27.78" disallow="tram rail_urban rail rail_electric rail_fast ship" oneway="1"/>
    <type id="highway.secondary_link" priority="6" numLanes="1" speed="22.22" disallow="tram rail_urban rail rail_electric rail_fast ship" oneway="1"/>
    <type id="highway.service" priority="1" numLanes="1" speed="5.56" allow="pedestrian delivery bicycle" oneway="1"/>
    <type id="highway.stairs" priority="1" numLanes="1" speed="1.39" allow="pedestrian" oneway="1" width="2.00"/>
    <type id="highway.step" priority="1" numLanes="1" speed="1.39" allow="pedestrian" oneway="1" width="2.00"/>
    <type id="highway.steps" priority="1" numLanes="1" speed="1.39" allow="pedestrian" oneway="1" width="2.00"/>
    <type id="highway.tertiary" priority="10" numLanes="1" speed="22.22" disallow="tram rail_urban rail rail_electric rail_fast ship" oneway="1"/>
    <type id="highway.tertiary_link" priority="5" numLanes="1" speed="22.22" disallow="tram rail_urban rail rail_electric rail_fast ship" oneway="1"/>
    <type id="highway.track" priority="1" numLanes="1" speed="5.56" allow="pedestrian motorcycle moped bicycle" oneway="1"/>
    <type id="highway.trunk" priority="13" numLanes="2" speed="27.78" disallow="pedestrian bicycle tram rail_urban rail rail_electric rail_fast ship" oneway="1"/>
    <type id="highway.trunk_link" priority="8" numLanes="1" speed="22.22" disallow="pedestrian bicycle tram rail_urban rail rail_electric rail_fast ship" oneway="1"/>
    <type id="highway.unclassified" priority="4" numLanes="1" speed="13.89" disallow="tram rail_urban rail rail_electric rail_fast ship" oneway="1"/>
    <type id="highway.unsurfaced" priority="1" numLanes="1" speed="8.33" disallow="tram rail_urban rail rail_electric rail_fast ship" oneway="1"/>
    <type id="railway.highspeed" priority="21" numLanes="1" speed="69.44" allow="rail_fast" oneway="1"/>
    <type id="railway.light_rail" priority="19" numLanes="1" speed="27.78" allow="rail_urban" oneway="1"/>
    <type id="railway.preserved" priority="16" numLanes="1" speed="27.78" allow="rail" oneway="1"/>
    <type id="railway.rail" priority="20" numLanes="1" speed="44.44" allow="rail" oneway="1"/>
    <type id="railway.subway" priority="18" numLanes="1" speed="27.78" allow="rail_urban" oneway="1"/>
    <type id="railway.tram" priority="17" numLanes="1" speed="13.89" allow="tram" oneway="1"/>

    <edge id=":1128611463_0" function="internal">
        <lane id=":1128611463_0_0" index="0" disallow="tram rail_urban rail rail_electric rail_fast ship" speed="27.78" length="0.29" shape="2978.72,2451.00 2978.71,2450.73"/>
        <lane id=":1128611463_0_1" index="1" disallow="tram rail_urban rail rail_electric rail_fast ship" speed="27.78" length="0.29" shape="2981.91,2450.89 2981.90,2450.58"/>
    </edge>
    <edge id=":1174817663_0" function="internal">
        <lane id=":1174817663_0_0" index="0" disallow="tram rail_urban rail rail_electric rail_fast ship" speed="6.51" length="9.03" shape="3322.16,2000.08 3321.41,1997.73 3320.08,1996.18 3318.18,1995.43 3315.70,1995.50"/>
    </edge>
    <edge id=":1174817663_1" function="internal">
        <lane id=":1174817663_1_0" index="0" disallow="tram rail_urban rail rail_electric rail_fast ship" speed="13.89" length="14.51" shape="3322.16,2000.08 3319.74,1985.77"/>
    </edge>
    <edge id=":1174817663_2" function="internal">
        <lane id=":1174817663_2_0" index="0" disallow="tram rail_urban rail rail_electric rail_fast ship" speed="8.13" length="5.94" shape="3322.16,2000.08 3322.06,1996.20 3322.81,1994.28"/>
    </edge>
    <edge id=":1174817663_3" function="internal">
        <lane id=":1174817663_3_0" index="0" disallow="tram rail_urban rail rail_electric rail_fast ship" speed="3.65" length="2.34" shape="3322.16,2000.08 3322.75,1998.76 3323.47,1998.23"/>
    </edge>
    <edge id=":1174817663_16" function="internal">
        <lane id=":1174817663_16_0" index="0" disallow="tram rail_urban rail rail_electric rail_fast ship" speed="8.13" length="8.38" shape="3322.81,1994.28 3323.23,1993.17 3325.67,1991.01 3329.38,1989.69"/>
    </edge>
    <edge id=":1174817663_17" function="internal">
        <lane id=":1174817663_17_0" index="0" disallow="tram rail_urban rail rail_electric rail_fast ship" speed="3.65" length="2.34" shape="3323.47,1998.23 3324.33,1998.49 3325.32,1999.54"/>
    </edge>
    <edge id=":1174817663_4" function="internal">
        <lane id=":1174817663_4_0" index="0" disallow="tram rail_urban rail rail_electric rail_fast ship" speed="6.66" length="9.28" shape="3330.02,1992.83 3327.60,1993.68 3326.02,1995.08 3325.26,1997.04 3325.32,1999.54"/>
    </edge>
    <edge id=":1174817663_5" function="internal">
        <lane id=":1174817663_5_0" index="0" disallow="tram rail_urban rail rail_electric rail_fast ship" speed="13.89" length="14.56" shape="3330.02,1992.83 3315.70,1995.50"/>
    </edge>
    <edge id=":1174817663_6" function="internal">
        <lane id=":1174817663_6_0" index="0" disallow="tram rail_urban rail rail_electric rail_fast ship" speed="7.94" length="14.33" shape="3330.02,1992.83 3326.08,1993.06 3323.05,1991.96 3320.94,1989.53 3319.74,1985.77"/>
    </edge>
    <edge id=":1174817663_7" function="internal">
        <lane id=":1174817663_7_0" index="0" disallow="tram rail_urban rail rail_electric rail_fast ship" speed="3.65" length="4.67" shape="3330.02,1992.83 3328.68,1992.29 3328.13,1991.58 3328.36,1990.72 3329.38,1989.69"/>
    </edge>
    <edge id=":1174817663_8" function="internal">
        <lane id=":1174817663_8_0" index="0" disallow="tram rail_urban rail rail_electric rail_fast ship" speed="6.43" length="9.03" shape="3322.90,1985.24 3323.66,1987.61 3324.99,1989.15 3326.89,1989.84 3329.38,1989.69"/>
    </edge>
    <edge id=":1174817663_9" function="internal">
        <lane id=":1174817663_9_0" index="0" disallow="tram rail_urban rail rail_electric rail_fast ship" speed="13.89" length="14.50" shape="3322.90,1985.24 3325.32,1999.54"/>
    </edge>
    <edge id=":1174817663_10" function="internal">
        <lane id=":1174817663_10_0" index="0" disallow="tram rail_urban rail rail_electric rail_fast ship" speed="8.03" length="5.98" shape="3322.90,1985.24 3323.00,1989.18 3322.27,1991.09"/>
    </edge>
    <edge id=":1174817663_11" function="internal">
        <lane id=":1174817663_11_0" index="0" disallow="tram rail_urban rail rail_electric rail_fast ship" speed="3.65" length="2.34" shape="3322.90,1985.24 3322.31,1986.56 3321.59,1987.08"/>
    </edge>
    <edge id=":1174817663_18" function="internal">
        <lane id=":1174817663_18_0" index="0" disallow="tram rail_urban rail rail_electric rail_fast ship" speed="8.03" length="8.30" shape="3322.27,1991.09 3321.84,1992.20 3319.40,1994.31 3315.70,1995.50"/>
    </edge>
    <edge id=":1174817663_19" function="internal">
        <lane id=":1174817663_19_0" index="0" disallow="tram rail_urban rail rail_electric rail_fast ship" speed="3.65" length="2.34" shape="3321.59,1987.08 3320.73,1986.82 3319.74,1985.77"/>
    </edge>
    <edge id=":1174817663_12" function="internal">
        <lane id=":1174817663_12_0" index="0" disallow="tram rail_urban rail rail_electric rail_fast ship" speed="6.54" length="9.13" shape="3315.17,1992.34 3317.52,1991.58 3319.07,1990.23 3319.81,1988.30 3319.74,1985.77"/>
    </edge>
    <edge id=":1174817663_13" function="internal">
        <lane id=":1174817663_13_0" index="0" disallow="tram rail_urban rail rail_electric rail_fast ship" speed="13.89" length="14.45" shape="3315.17,1992.34 3329.38,1989.69"/>
    </edge>
    <edge id=":1174817663_14" function="internal">
        <lane id=":1174817663_14_0" index="0" disallow="tram rail_urban rail rail_electric rail_fast ship" speed="8.01" length="14.19" shape="3315.17,1992.34 3319.05,1992.24 3322.04,1993.41 3324.13,1995.84 3325.32,1999.54"/>
    </edge>
    <edge id=":1174817663_15" function="internal">
        <lane id=":1174817663_15_0" index="0" disallow="tram rail_urban rail rail_electric rail_fast ship" speed="3.65" length="4.67" shape="3315.17,1992.34 3316.49,1992.93 3317.01,1993.65 3316.75,1994.51 3315.70,1995.50"/>
    </edge>
    <edge id=":1174817669_0" function="internal">
        <lane id=":1174817669_0_0" index="0" disallow="tram rail_urban rail rail_electric rail_fast ship" speed="6.50" length="9.03" shape="2982.74,2022.46 2980.31,2022.89 2978.60,2024.00 2977.61,2025.79 2977.35,2028.25"/>
    </edge>
    <edge id=":1174817669_1" function="internal">
        <lane id=":1174817669_1_0" index="0" disallow="tram rail_urban rail rail_electric rail_fast ship" speed="3.65" length="4.67" shape="2982.74,2022.46 2981.52,2021.70 2981.09,2020.92 2981.46,2020.10 2982.63,2019.26"/>
    </edge>
    <edge id=":1174817669_2" function="internal">
        <lane id=":1174817669_2_0" index="0" disallow="tram rail_urban rail rail_electric rail_fast ship" speed="6.57" length="9.08" shape="2976.70,2013.89 2977.19,2016.31 2978.34,2018.01 2980.15,2019.00 2982.63,2019.26"/>
    </edge>
    <edge id=":1174817669_3" function="internal">
        <lane id=":1174817669_3_0" index="0" disallow="tram rail_urban rail rail_electric rail_fast ship" speed="27.78" length="14.34" shape="2976.70,2013.89 2977.35,2028.25"/>
        <lane id=":1174817669_3_1" index="1" disallow="tram rail_urban rail rail_electric rail_fast ship" speed="27.78" length="14.34" shape="2973.51,2014.07 2974.15,2028.37"/>
    </edge>
    <edge id=":1194258146_0" function="internal">
        <lane id=":1194258146_0_0" index="0" disallow="tram rail_urban rail rail_electric rail_fast ship" speed="6.78" length="9.52" shape="2805.95,1989.30 2805.44,1986.75 2804.24,1984.93 2802.37,1983.85 2799.81,1983.51"/>
    </edge>
    <edge id=":1194258146_1" function="internal">
        <lane id=":1194258146_1_0" index="0" disallow="tram rail_urban rail rail_electric rail_fast ship" speed="13.89" length="14.71" shape="2805.95,1989.30 2805.18,1974.61"/>
    </edge>
    <edge id=":1194258146_2" function="internal">
        <lane id=":1194258146_2_0" index="0" disallow="tram rail_urban rail rail_electric rail_fast ship" speed="7.91" length="14.40" shape="2805.95,1989.30 2806.28,1985.34 2807.81,1982.50 2810.54,1980.78 2814.48,1980.19"/>
    </edge>
    <edge id=":1194258146_3" function="internal">
        <lane id=":1194258146_3_0" index="0" disallow="tram rail_urban rail rail_electric rail_fast ship" speed="3.65" length="4.67" shape="2805.95,1989.30 2806.68,1988.05 2807.46,1987.61 2808.28,1987.96 2809.15,1989.11"/>
    </edge>
    <edge id=":1194258146_4" function="internal">
        <lane id=":1194258146_4_0" index="0" disallow="tram rail_urban rail rail_electric rail_fast ship" speed="6.39" length="9.04" shape="2814.50,1983.39 2812.03,1983.76 2810.32,1984.84 2809.36,1986.62 2809.15,1989.11"/>
    </edge>
    <edge id=":1194258146_5" function="internal">
        <lane id=":1194258146_5_0" index="0" disallow="tram rail_urban rail rail_electric rail_fast ship" speed="13.89" length="14.68" shape="2814.50,1983.39 2799.81,1983.51"/>
    </edge>
    <edge id=":1194258146_6" function="internal">
        <lane id=":1194258146_6_0" index="0" disallow="tram rail_urban rail rail_electric rail_fast ship" speed="8.19" length="6.02" shape="2814.50,1983.39 2810.57,1982.87 2808.78,1981.84"/>
    </edge>
    <edge id=":1194258146_7" function="internal">
        <lane id=":1194258146_7_0" index="0" disallow="tram rail_urban rail rail_electric rail_fast ship" speed="3.65" length="2.34" shape="2814.50,1983.39 2813.29,1982.60 2812.89,1981.80"/>
    </edge>
    <edge id=":1194258146_16" function="internal">
        <lane id=":1194258146_16_0" index="0" disallow="tram rail_urban rail rail_electric rail_fast ship" speed="8.19" length="8.46" shape="2808.78,1981.84 2807.71,1981.22 2805.92,1978.47 2805.18,1974.61"/>
    </edge>
    <edge id=":1194258146_17" function="internal">
        <lane id=":1194258146_17_0" index="0" disallow="tram rail_urban rail rail_electric rail_fast ship" speed="3.65" length="2.34" shape="2812.89,1981.80 2813.28,1981.00 2814.48,1980.19"/>
    </edge>
    <edge id=":1194258146_8" function="internal">
        <lane id=":1194258146_8_0" index="0" disallow="tram rail_urban rail rail_electric rail_fast ship" speed="6.74" length="9.46" shape="2808.38,1974.46 2808.86,1976.98 2810.03,1978.78 2811.91,1979.85 2814.48,1980.19"/>
    </edge>
    <edge id=":1194258146_9" function="internal">
        <lane id=":1194258146_9_0" index="0" disallow="tram rail_urban rail rail_electric rail_fast ship" speed="13.89" length="14.67" shape="2808.38,1974.46 2809.15,1989.11"/>
    </edge>
    <edge id=":1194258146_10" function="internal">
        <lane id=":1194258146_10_0" index="0" disallow="tram rail_urban rail rail_electric rail_fast ship" speed="7.94" length="14.33" shape="2808.38,1974.46 2808.00,1978.39 2806.44,1981.21 2803.71,1982.91 2799.81,1983.51"/>
    </edge>
    <edge id=":1194258146_11" function="internal">
        <lane id=":1194258146_11_0" index="0" disallow="tram rail_urban rail rail_electric rail_fast ship" speed="3.65" length="4.67" shape="2808.38,1974.46 2807.64,1975.70 2806.85,1976.13 2806.04,1975.77 2805.18,1974.61"/>
    </edge>
    <edge id=":1194258146_12" function="internal">
        <lane id=":1194258146_12_0" index="0" disallow="tram rail_urban rail rail_electric rail_fast ship" speed="6.43" length="9.03" shape="2799.78,1980.31 2802.24,1979.93 2803.96,1978.86 2804.94,1977.08 2805.18,1974.61"/>
    </edge>
    <edge id=":1194258146_13" function="internal">
        <lane id=":1194258146_13_0" index="0" disallow="tram rail_urban rail rail_electric rail_fast ship" speed="13.89" length="14.70" shape="2799.78,1980.31 2814.48,1980.19"/>
    </edge>
    <edge id=":1194258146_14" function="internal">
        <lane id=":1194258146_14_0" index="0" disallow="tram rail_urban rail rail_electric rail_fast ship" speed="8.23" length="6.02" shape="2799.78,1980.31 2803.68,1980.83 2805.49,1981.87"/>
    </edge>
    <edge id=":1194258146_15" function="internal">
        <lane id=":1194258146_15_0" index="0" disallow="tram rail_urban rail rail_electric rail_fast ship" speed="3.65" length="2.34" shape="2799.78,1980.31 2800.99,1981.10 2801.40,1981.90"/>
    </edge>
    <edge id=":1194258146_18" function="internal">
        <lane id=":1194258146_18_0" index="0" disallow="tram rail_urban rail rail_electric rail_fast ship" speed="8.23" length="8.48" shape="2805.49,1981.87 2806.54,1982.47 2808.36,1985.23 2809.15,1989.11"/>
    </edge>
    <edge id=":1194258146_19" function="internal">
        <lane id=":1194258146_19_0" index="0" disallow="tram rail_urban rail rail_electric rail_fast ship" speed="3.65" length="2.34" shape="2801.40,1981.90 2801.00,1982.70 2799.81,1983.51"/>
    </edge>
    <edge id=":1194258168_0" function="internal">
        <lane id=":1194258168_0_0" index="0" disallow="tram rail_urban rail rail_electric rail_fast ship" speed="3.65" length="4.67" shape="2709.94,1981.93 2708.78,1981.07 2708.42,1980.25 2708.86,1979.47 2710.10,1978.73"/>
    </edge>
    <edge id=":1194258175_0" function="internal">
        <lane id=":1194258175_0_0" index="0" disallow="tram rail_urban rail rail_electric rail_fast ship" speed="3.65" length="4.67" shape="2798.05,1848.14 2798.72,1846.86 2799.47,1846.38 2800.31,1846.69 2801.23,1847.80"/>
    </edge>
    <edge id=":1194258199_0" function="internal">
        <lane id=":1194258199_0_0" index="0" disallow="tram rail_urban rail rail_electric rail_fast ship" speed="5.84" length="8.75" shape="2814.13,2072.20 2813.83,2074.15 2812.64,2075.30 2810.56,2075.63 2807.58,2075.16"/>
    </edge>
    <edge id=":1194258199_1" function="internal">
        <lane id=":1194258199_1_0" index="0" disallow="tram rail_urban rail rail_electric rail_fast ship" speed="3.65" length="4.67" shape="2814.13,2072.20 2813.41,2073.45 2812.63,2073.89 2811.81,2073.54 2810.94,2072.39"/>
    </edge>
    <edge id=":1194258289_0" function="internal">
        <lane id=":1194258289_0_0" index="0" disallow="tram rail_urban rail rail_electric rail_fast ship" speed="3.65" length="4.67" shape="2930.23,1979.03 2931.44,1979.81 2931.85,1980.61 2931.46,1981.41 2930.27,1982.23"/>
    </edge>
    <edge id=":1350379831_0" function="internal">
        <lane id=":1350379831_0_0" index="0" disallow="tram rail_urban rail rail_electric rail_fast ship" speed="6.20" length="5.77" shape="2781.12,2249.87 2781.81,2251.22 2782.03,2252.58 2781.79,2253.92 2781.10,2255.27"/>
    </edge>
    <edge id=":1350379831_1" function="internal">
        <lane id=":1350379831_1_0" index="0" disallow="tram rail_urban rail rail_electric rail_fast ship" speed="3.65" length="2.71" shape="2781.12,2249.87 2781.13,2251.31 2780.69,2252.09 2780.32,2252.14"/>
    </edge>
    <edge id=":1350379831_4" function="internal">
        <lane id=":1350379831_4_0" index="0" disallow="tram rail_urban rail rail_electric rail_fast ship" speed="3.65" length="1.97" shape="2780.32,2252.14 2779.80,2252.21 2778.47,2251.66"/>
    </edge>
    <edge id=":1350379831_2" function="internal">
        <lane id=":1350379831_2_0" index="0" disallow="tram rail_urban rail rail_electric rail_fast ship" speed="3.97" length="1.92" shape="2778.46,2253.46 2778.69,2253.01 2778.77,2252.56 2778.70,2252.11 2778.47,2251.66"/>
    </edge>
    <edge id=":1350379831_3" function="internal">
        <lane id=":1350379831_3_0" index="0" disallow="tram rail_urban rail rail_electric rail_fast ship" speed="3.65" length="1.98" shape="2778.46,2253.46 2779.80,2252.92 2780.33,2252.99"/>
    </edge>
    <edge id=":1350379831_5" function="internal">
        <lane id=":1350379831_5_0" index="0" disallow="tram rail_urban rail rail_electric rail_fast ship" speed="3.65" length="2.69" shape="2780.33,2252.99 2780.68,2253.04 2781.12,2253.83 2781.10,2255.27"/>
    </edge>
    <edge id=":1482866267_0" function="internal">
        <lane id=":1482866267_0_0" index="0" disallow="tram rail_urban rail rail_electric rail_fast ship" speed="3.65" length="4.67" shape="2752.16,2155.61 2753.31,2154.73 2754.19,2154.60 2754.82,2155.24 2755.20,2156.63"/>
    </edge>
    <edge id=":1483358077_0" function="internal">
        <lane id=":1483358077_0_0" index="0" disallow="tram rail_urban rail rail_electric rail_fast ship" speed="3.65" length="4.67" shape="4195.04,2151.42 4195.71,2150.15 4196.47,2149.67 4197.31,2149.99 4198.22,2151.10"/>
    </edge>
    <edge id=":1483358084_0" function="internal">
        <lane id=":1483358084_0_0" index="0" disallow="tram rail_urban rail rail_electric rail_fast ship" speed="3.90" length="2.68" shape="3994.69,2175.02 3994.54,2174.30 3994.20,2173.81 3993.66,2173.55 3992.92,2173.52"/>
    </edge>
    <edge id=":1483358084_1" function="internal">
        <lane id=":1483358084_1_0" index="0" disallow="tram rail_urban rail rail_electric rail_fast ship" speed="6.07" length="8.04" shape="3992.58,2170.34 3994.79,2170.42 3996.42,2171.20 3997.45,2172.67 3997.88,2174.85"/>
    </edge>
    <edge id=":1483358094_0" function="internal">
        <lane id=":1483358094_0_0" index="0" disallow="tram rail_urban rail rail_electric rail_fast ship" speed="6.62" length="9.08" shape="3869.09,2192.44 3868.49,2190.01 3867.28,2188.33 3865.45,2187.38 3863.01,2187.18"/>
    </edge>
    <edge id=":1483358094_1" function="internal">
        <lane id=":1483358094_1_0" index="0" disallow="tram rail_urban rail rail_electric rail_fast ship" speed="8.00" length="14.14" shape="3869.09,2192.44 3869.24,2188.57 3870.59,2185.67 3873.15,2183.75 3876.90,2182.79"/>
    </edge>
    <edge id=":1483358094_2" function="internal">
        <lane id=":1483358094_2_0" index="0" disallow="tram rail_urban rail rail_electric rail_fast ship" speed="3.65" length="4.67" shape="3869.09,2192.44 3869.76,2191.16 3870.52,2190.68 3871.35,2191.00 3872.27,2192.11"/>
    </edge>
    <edge id=":1483358094_3" function="internal">
        <lane id=":1483358094_3_0" index="0" disallow="tram rail_urban rail rail_electric rail_fast ship" speed="6.51" length="9.00" shape="3877.24,2185.97 3874.85,2186.58 3873.23,2187.81 3872.37,2189.65 3872.27,2192.11"/>
    </edge>
    <edge id=":1483358094_4" function="internal">
        <lane id=":1483358094_4_0" index="0" disallow="tram rail_urban rail rail_electric rail_fast ship" speed="13.89" length="14.28" shape="3877.24,2185.97 3863.01,2187.18"/>
    </edge>
    <edge id=":1483358094_5" function="internal">
        <lane id=":1483358094_5_0" index="0" disallow="tram rail_urban rail rail_electric rail_fast ship" speed="3.65" length="2.34" shape="3877.24,2185.97 3875.96,2185.31 3875.48,2184.55"/>
    </edge>
    <edge id=":1483358094_9" function="internal">
        <lane id=":1483358094_9_0" index="0" disallow="tram rail_urban rail rail_electric rail_fast ship" speed="3.65" length="2.34" shape="3875.48,2184.55 3875.79,2183.72 3876.90,2182.79"/>
    </edge>
    <edge id=":1483358094_6" function="internal">
        <lane id=":1483358094_6_0" index="0" disallow="tram rail_urban rail rail_electric rail_fast ship" speed="13.89" length="14.14" shape="3862.81,2183.99 3876.90,2182.79"/>
    </edge>
    <edge id=":1483358094_7" function="internal">
        <lane id=":1483358094_7_0" index="0" disallow="tram rail_urban rail rail_electric rail_fast ship" speed="8.09" length="5.65" shape="3862.81,2183.99 3866.62,2184.30 3868.25,2185.13"/>
    </edge>
    <edge id=":1483358094_8" function="internal">
        <lane id=":1483358094_8_0" index="0" disallow="tram rail_urban rail rail_electric rail_fast ship" speed="3.65" length="2.34" shape="3862.81,2183.99 3864.06,2184.71 3864.51,2185.49"/>
    </edge>
    <edge id=":1483358094_10" function="internal">
        <lane id=":1483358094_10_0" index="0" disallow="tram rail_urban rail rail_electric rail_fast ship" speed="8.09" length="8.45" shape="3868.25,2185.13 3869.46,2185.75 3871.35,2188.36 3872.27,2192.11"/>
    </edge>
    <edge id=":1483358094_11" function="internal">
        <lane id=":1483358094_11_0" index="0" disallow="tram rail_urban rail rail_electric rail_fast ship" speed="3.65" length="2.34" shape="3864.51,2185.49 3864.16,2186.31 3863.01,2187.18"/>
    </edge>
    <edge id=":1483358103_0" function="internal">
        <lane id=":1483358103_0_0" index="0" disallow="tram rail_urban rail rail_electric rail_fast ship" speed="6.55" length="9.14" shape="3790.48,2197.46 3789.88,2195.00 3788.65,2193.32 3786.80,2192.43 3784.33,2192.32"/>
    </edge>
    <edge id=":1483358103_1" function="internal">
        <lane id=":1483358103_1_0" index="0" disallow="tram rail_urban rail rail_electric rail_fast ship" speed="7.93" length="14.35" shape="3790.48,2197.46 3790.65,2193.51 3792.04,2190.60 3794.68,2188.75 3798.55,2187.95"/>
    </edge>
    <edge id=":1483358103_2" function="internal">
        <lane id=":1483358103_2_0" index="0" disallow="tram rail_urban rail rail_electric rail_fast ship" speed="3.65" length="4.67" shape="3790.48,2197.46 3791.16,2196.18 3791.91,2195.70 3792.75,2196.02 3793.67,2197.13"/>
    </edge>
    <edge id=":1483358103_3" function="internal">
        <lane id=":1483358103_3_0" index="0" disallow="tram rail_urban rail rail_electric rail_fast ship" speed="6.42" length="9.04" shape="3798.75,2191.15 3796.31,2191.65 3794.65,2192.82 3793.77,2194.64 3793.67,2197.13"/>
    </edge>
    <edge id=":1483358103_4" function="internal">
        <lane id=":1483358103_4_0" index="0" disallow="tram rail_urban rail rail_electric rail_fast ship" speed="13.89" length="14.46" shape="3798.75,2191.15 3784.33,2192.32"/>
    </edge>
    <edge id=":1483358103_5" function="internal">
        <lane id=":1483358103_5_0" index="0" disallow="tram rail_urban rail rail_electric rail_fast ship" speed="3.65" length="2.34" shape="3798.75,2191.15 3797.50,2190.42 3797.05,2189.65"/>
    </edge>
    <edge id=":1483358103_9" function="internal">
        <lane id=":1483358103_9_0" index="0" disallow="tram rail_urban rail rail_electric rail_fast ship" speed="3.65" length="2.34" shape="3797.05,2189.65 3797.40,2188.82 3798.55,2187.95"/>
    </edge>
    <edge id=":1483358103_6" function="internal">
        <lane id=":1483358103_6_0" index="0" disallow="tram rail_urban rail rail_electric rail_fast ship" speed="13.89" length="14.59" shape="3784.01,2189.13 3798.55,2187.95"/>
    </edge>
    <edge id=":1483358103_7" function="internal">
        <lane id=":1483358103_7_0" index="0" disallow="tram rail_urban rail rail_electric rail_fast ship" speed="8.03" length="6.11" shape="3784.01,2189.13 3787.89,2189.30 3789.90,2190.26"/>
    </edge>
    <edge id=":1483358103_8" function="internal">
        <lane id=":1483358103_8_0" index="0" disallow="tram rail_urban rail rail_electric rail_fast ship" speed="3.65" length="2.34" shape="3784.01,2189.13 3785.28,2189.81 3785.76,2190.56"/>
    </edge>
    <edge id=":1483358103_10" function="internal">
        <lane id=":1483358103_10_0" index="0" disallow="tram rail_urban rail rail_electric rail_fast ship" speed="8.03" length="8.19" shape="3789.90,2190.26 3790.80,2190.69 3792.72,2193.30 3793.67,2197.13"/>
    </edge>
    <edge id=":1483358103_11" function="internal">
        <lane id=":1483358103_11_0" index="0" disallow="tram rail_urban rail rail_electric rail_fast ship" speed="3.65" length="2.34" shape="3785.76,2190.56 3785.44,2191.40 3784.33,2192.32"/>
    </edge>
    <edge id=":1483358118_0" function="internal">
        <lane id=":1483358118_0_0" index="0" disallow="tram rail_urban rail rail_electric rail_fast ship" speed="6.58" length="9.13" shape="3698.25,2206.73 3697.61,2204.29 3696.35,2202.63 3694.49,2201.75 3692.03,2201.64"/>
    </edge>
    <edge id=":1483358118_1" function="internal">
        <lane id=":1483358118_1_0" index="0" disallow="tram rail_urban rail rail_electric rail_fast ship" speed="7.97" length="14.27" shape="3698.25,2206.73 3698.34,2202.81 3699.66,2199.89 3702.23,2197.95 3706.03,2197.01"/>
    </edge>
    <edge id=":1483358118_2" function="internal">
        <lane id=":1483358118_2_0" index="0" disallow="tram rail_urban rail rail_electric rail_fast ship" speed="3.65" length="4.67" shape="3698.25,2206.73 3698.90,2205.44 3699.65,2204.95 3700.49,2205.25 3701.43,2206.35"/>
    </edge>
    <edge id=":1483358118_3" function="internal">
        <lane id=":1483358118_3_0" index="0" disallow="tram rail_urban rail rail_electric rail_fast ship" speed="6.47" length="9.03" shape="3706.36,2200.19 3703.95,2200.79 3702.32,2202.01 3701.48,2203.87 3701.43,2206.35"/>
    </edge>
    <edge id=":1483358118_4" function="internal">