<?xml version="1.0" encoding="UTF-8"?>

<!-- generated on 2022-12-06 14:06:11 by Eclipse SUMO netconvert Version 1.10.0
<configuration xmlns:xsi="http://www.w3.org/2001/XMLSchema-instance" xsi:noNamespaceSchemaLocation="http://sumo.dlr.de/xsd/netconvertConfiguration.xsd">

    <input>
        <sumo-net-file value="largeL.net.xml"/>
    </input>

    <output>
        <output-file value="largeLdown.net.xml"/>
        <output.street-names value="true"/>
    </output>

    <processing>
        <geometry.min-radius.fix.railways value="false"/>
        <geometry.max-grade.fix value="false"/>
        <offset.disable-normalization value="true"/>
        <lefthand value="false"/>
    </processing>

    <edge_removal>
        <keep-edges.in-boundary value="2743.82,197.13,-514.69,1185.77"/>
    </edge_removal>

    <junctions>
        <no-turnarounds value="true"/>
        <junctions.corner-detail value="5"/>
        <junctions.limit-turn-speed value="5.5"/>
        <rectangular-lane-cut value="false"/>
    </junctions>

    <pedestrian>
        <walkingareas value="false"/>
    </pedestrian>

    <report>
        <aggregate-warnings value="5"/>
    </report>

</configuration>
-->

<net version="1.9" junctionCornerDetail="5" limitTurnSpeed="5.50" xmlns:xsi="http://www.w3.org/2001/XMLSchema-instance" xsi:noNamespaceSchemaLocation="http://sumo.dlr.de/xsd/net_file.xsd">

    <location netOffset="-312195.61,-4666326.23" convBoundary="0.00,525.22,2981.83,1462.51" origBoundary="24.725718,42.117759,24.792474,42.155549" projParameter="+proj=utm +zone=35 +ellps=WGS84 +datum=WGS84 +units=m +no_defs"/>

    <type id="highway.bridleway" priority="1" numLanes="1" speed="2.78" allow="pedestrian" oneway="1" width="2.00"/>
    <type id="highway.bus_guideway" priority="1" numLanes="1" speed="27.78" allow="bus" oneway="1"/>
    <type id="highway.cycleway" priority="1" numLanes="1" speed="8.33" allow="bicycle" oneway="1" width="1.00"/>
    <type id="highway.footway" priority="1" numLanes="1" speed="2.78" allow="pedestrian" oneway="1" width="2.00"/>
    <type id="highway.ford" priority="1" numLanes="1" speed="2.78" allow="army" oneway="1"/>
    <type id="highway.living_street" priority="2" numLanes="1" speed="2.78" disallow="tram rail_urban rail rail_electric rail_fast ship" oneway="1"/>
    <type id="highway.motorway" priority="14" numLanes="2" speed="39.44" allow="private emergency authority army vip passenger hov taxi bus coach delivery truck trailer motorcycle evehicle custom1 custom2" oneway="1"/>
    <type id="highway.motorway_link" priority="9" numLanes="1" speed="22.22" allow="private emergency authority army vip passenger hov taxi bus coach delivery truck trailer motorcycle evehicle custom1 custom2" oneway="1"/>
    <type id="highway.path" priority="1" numLanes="1" speed="2.78" allow="pedestrian bicycle" oneway="1" width="2.00"/>
    <type id="highway.pedestrian" priority="1" numLanes="1" speed="2.78" allow="pedestrian" oneway="1" width="2.00"/>
    <type id="highway.primary" priority="12" numLanes="2" speed="27.78" disallow="tram rail_urban rail rail_electric rail_fast ship" oneway="1"/>
    <type id="highway.primary_link" priority="7" numLanes="1" speed="22.22" disallow="tram rail_urban rail rail_electric rail_fast ship" oneway="1"/>
    <type id="highway.raceway" priority="15" numLanes="2" speed="83.33" allow="vip" oneway="1"/>
    <type id="highway.residential" priority="3" numLanes="1" speed="13.89" disallow="tram rail_urban rail rail_electric rail_fast ship" oneway="1"/>
    <type id="highway.secondary" priority="11" numLanes="1" speed="27.78" disallow="tram rail_urban rail rail_electric rail_fast ship" oneway="1"/>
    <type id="highway.secondary_link" priority="6" numLanes="1" speed="22.22" disallow="tram rail_urban rail rail_electric rail_fast ship" oneway="1"/>
    <type id="highway.service" priority="1" numLanes="1" speed="5.56" allow="pedestrian delivery bicycle" oneway="1"/>
    <type id="highway.stairs" priority="1" numLanes="1" speed="1.39" allow="pedestrian" oneway="1" width="2.00"/>
    <type id="highway.step" priority="1" numLanes="1" speed="1.39" allow="pedestrian" oneway="1" width="2.00"/>
    <type id="highway.steps" priority="1" numLanes="1" speed="1.39" allow="pedestrian" oneway="1" width="2.00"/>
    <type id="highway.tertiary" priority="10" numLanes="1" speed="22.22" disallow="tram rail_urban rail rail_electric rail_fast ship" oneway="1"/>
    <type id="highway.tertiary_link" priority="5" numLanes="1" speed="22.22" disallow="tram rail_urban rail rail_electric rail_fast ship" oneway="1"/>
    <type id="highway.track" priority="1" numLanes="1" speed="5.56" allow="pedestrian motorcycle moped bicycle" oneway="1"/>
    <type id="highway.trunk" priority="13" numLanes="2" speed="27.78" disallow="pedestrian bicycle tram rail_urban rail rail_electric rail_fast ship" oneway="1"/>
    <type id="highway.trunk_link" priority="8" numLanes="1" speed="22.22" disallow="pedestrian bicycle tram rail_urban rail rail_electric rail_fast ship" oneway="1"/>
    <type id="highway.unclassified" priority="4" numLanes="1" speed="13.89" disallow="tram rail_urban rail rail_electric rail_fast ship" oneway="1"/>
    <type id="highway.unsurfaced" priority="1" numLanes="1" speed="8.33" disallow="tram rail_urban rail rail_electric rail_fast ship" oneway="1"/>
    <type id="railway.highspeed" priority="21" numLanes="1" speed="69.44" allow="rail_fast" oneway="1"/>
    <type id="railway.light_rail" priority="19" numLanes="1" speed="27.78" allow="rail_urban" oneway="1"/>
    <type id="railway.preserved" priority="16" numLanes="1" speed="27.78" allow="rail" oneway="1"/>
    <type id="railway.rail" priority="20" numLanes="1" speed="44.44" allow="rail" oneway="1"/>
    <type id="railway.subway" priority="18" numLanes="1" speed="27.78" allow="rail_urban" oneway="1"/>
    <type id="railway.tram" priority="17" numLanes="1" speed="13.89" allow="tram" oneway="1"/>

    <edge id=":1066719787_0" function="internal">
        <lane id=":1066719787_0_0" index="0" disallow="tram rail_urban rail rail_electric rail_fast ship" speed="25.00" length="24.96" shape="1787.11,1001.70 1782.76,1000.16 1777.09,998.16 1770.45,996.14 1763.22,994.57"/>
    </edge>
    <edge id=":1066719787_1" function="internal">
        <lane id=":1066719787_1_0" index="0" disallow="tram rail_urban rail rail_electric rail_fast ship" speed="27.78" length="18.61" shape="1781.78,995.97 1763.22,994.57"/>
        <lane id=":1066719787_1_1" index="1" disallow="tram rail_urban rail rail_electric rail_fast ship" speed="27.78" length="18.61" shape="1782.30,992.81 1763.74,991.41"/>
    </edge>
    <edge id=":1066719797_0" function="internal">
        <lane id=":1066719797_0_0" index="0" disallow="tram rail_urban rail rail_electric rail_fast ship" speed="22.22" length="0.29" shape="1505.10,933.31 1505.40,933.35"/>
    </edge>
    <edge id=":1066719828_0" function="internal">
        <lane id=":1066719828_0_0" index="0" disallow="tram rail_urban rail rail_electric rail_fast ship" speed="25.00" length="9.30" shape="1583.25,965.30 1580.56,965.37 1578.72,966.14 1576.88,966.85 1574.24,966.72"/>
    </edge>
    <edge id=":1066719828_1" function="internal">
        <lane id=":1066719828_1_0" index="0" disallow="tram rail_urban rail rail_electric rail_fast ship" speed="27.78" length="8.41" shape="1583.25,965.30 1580.83,964.66 1579.27,963.84 1577.71,963.02 1575.29,962.36"/>
        <lane id=":1066719828_1_1" index="1" disallow="tram rail_urban rail rail_electric rail_fast ship" speed="27.78" length="8.41" shape="1583.76,962.15 1581.41,961.51 1579.91,960.70 1578.40,959.89 1576.05,959.24"/>
    </edge>
    <edge id=":1066719855_0" function="internal">
        <lane id=":1066719855_0_0" index="0" disallow="tram rail_urban rail rail_electric rail_fast ship" speed="8.27" length="5.77" shape="1129.56,1184.59 1127.86,1184.59 1126.66,1184.43 1125.60,1183.92 1124.31,1182.84"/>
    </edge>
    <edge id=":1066719855_1" function="internal">
        <lane id=":1066719855_1_0" index="0" disallow="tram rail_urban rail rail_electric rail_fast ship" speed="7.44" length="5.58" shape="1126.05,1187.97 1125.99,1186.39 1125.69,1185.01 1125.13,1183.83 1124.31,1182.84"/>
    </edge>
    <edge id=":1066719928_0" function="internal">
        <lane id=":1066719928_0_0" index="0" disallow="tram rail_urban rail rail_electric rail_fast ship" speed="6.47" length="9.03" shape="1096.50,1156.82 1094.47,1155.40 1092.47,1154.98 1090.53,1155.56 1088.62,1157.15"/>
    </edge>
    <edge id=":1066719928_1" function="internal">
        <lane id=":1066719928_1_0" index="0" disallow="tram rail_urban rail rail_electric rail_fast ship" speed="27.78" length="11.18" shape="1096.04,1148.79 1088.62,1157.15"/>
    </edge>
    <edge id=":1066780647_0" function="internal">
        <lane id=":1066780647_0_0" index="0" disallow="tram rail_urban rail rail_electric rail_fast ship" speed="22.22" length="14.42" shape="1324.08,1122.48 1313.43,1112.76"/>
    </edge>
    <edge id=":1066780647_1" function="internal">
        <lane id=":1066780647_1_0" index="0" disallow="tram rail_urban rail rail_electric rail_fast ship" speed="8.01" length="5.94" shape="1324.08,1122.48 1321.60,1119.49 1321.01,1117.52"/>
    </edge>
    <edge id=":1066780647_2" function="internal">
        <lane id=":1066780647_2_0" index="0" disallow="tram rail_urban rail rail_electric rail_fast ship" speed="3.65" length="2.34" shape="1324.08,1122.48 1323.73,1121.08 1323.97,1120.22"/>
    </edge>
    <edge id=":1066780647_12" function="internal">
        <lane id=":1066780647_12_0" index="0" disallow="tram rail_urban rail rail_electric rail_fast ship" speed="8.01" length="8.26" shape="1321.01,1117.52 1320.68,1116.41 1321.31,1113.26 1323.49,1110.03"/>
    </edge>
    <edge id=":1066780647_13" function="internal">
        <lane id=":1066780647_13_0" index="0" disallow="tram rail_urban rail rail_electric rail_fast ship" speed="3.65" length="2.34" shape="1323.97,1120.22 1324.80,1119.90 1326.23,1120.12"/>
    </edge>
    <edge id=":1066780647_3" function="internal">
        <lane id=":1066780647_3_0" index="0" disallow="tram rail_urban rail rail_electric rail_fast ship" speed="6.52" length="9.05" shape="1325.86,1112.18 1324.47,1114.24 1324.07,1116.25 1324.65,1118.21 1326.23,1120.12"/>
    </edge>
    <edge id=":1066780647_4" function="internal">
        <lane id=":1066780647_4_0" index="0" disallow="tram rail_urban rail rail_electric rail_fast ship" speed="7.99" length="14.21" shape="1325.86,1112.18 1322.86,1114.67 1319.79,1115.60 1316.64,1114.96 1313.43,1112.76"/>
    </edge>
    <edge id=":1066780647_5" function="internal">
        <lane id=":1066780647_5_0" index="0" disallow="tram rail_urban rail rail_electric rail_fast ship" speed="3.65" length="4.67" shape="1325.86,1112.18 1324.46,1112.53 1323.60,1112.29 1323.28,1111.46 1323.49,1110.03"/>
    </edge>
    <edge id=":1066780647_6" function="internal">
        <lane id=":1066780647_6_0" index="0" disallow="tram rail_urban rail rail_electric rail_fast ship" speed="6.49" length="9.03" shape="1315.59,1110.40 1317.63,1111.80 1319.63,1112.21 1321.58,1111.62 1323.49,1110.03"/>
    </edge>
    <edge id=":1066780647_7" function="internal">
        <lane id=":1066780647_7_0" index="0" disallow="tram rail_urban rail rail_electric rail_fast ship" speed="22.22" length="14.41" shape="1315.59,1110.40 1326.23,1120.12"/>
    </edge>
    <edge id=":1066780647_8" function="internal">
        <lane id=":1066780647_8_0" index="0" disallow="tram rail_urban rail rail_electric rail_fast ship" speed="3.65" length="2.34" shape="1315.59,1110.40 1315.93,1111.81 1315.69,1112.67"/>
    </edge>
    <edge id=":1066780647_14" function="internal">
        <lane id=":1066780647_14_0" index="0" disallow="tram rail_urban rail rail_electric rail_fast ship" speed="3.65" length="2.34" shape="1315.69,1112.67 1314.85,1112.98 1313.43,1112.76"/>
    </edge>
    <edge id=":1066780647_9" function="internal">
        <lane id=":1066780647_9_0" index="0" disallow="tram rail_urban rail rail_electric rail_fast ship" speed="6.91" length="10.35" shape="1314.93,1121.75 1316.27,1119.64 1316.46,1117.44 1315.51,1115.15 1313.43,1112.76"/>
    </edge>
    <edge id=":1066780647_10" function="internal">
        <lane id=":1066780647_10_0" index="0" disallow="tram rail_urban rail rail_electric rail_fast ship" speed="13.89" length="14.52" shape="1314.93,1121.75 1317.23,1118.89 1319.22,1115.91 1321.21,1112.91 1323.49,1110.03"/>
    </edge>
    <edge id=":1066780647_11" function="internal">
        <lane id=":1066780647_11_0" index="0" disallow="tram rail_urban rail rail_electric rail_fast ship" speed="7.70" length="12.95" shape="1314.93,1121.75 1317.88,1119.22 1320.75,1118.11 1323.53,1118.41 1326.23,1120.12"/>
    </edge>
    <edge id=":1066780674_0" function="internal">
        <lane id=":1066780674_0_0" index="0" disallow="tram rail_urban rail rail_electric rail_fast ship" speed="27.78" length="21.90" shape="1177.66,989.24 1177.24,982.72 1176.02,978.24 1174.37,973.96 1172.69,968.06"/>
        <lane id=":1066780674_0_1" index="1" disallow="tram rail_urban rail rail_electric rail_fast ship" speed="27.78" length="22.74" shape="1177.66,989.24 1177.71,982.31 1177.51,977.37 1176.89,972.73 1175.67,966.67"/>
    </edge>
    <edge id=":1066780674_2" function="internal">
        <lane id=":1066780674_2_0" index="0" disallow="tram rail_urban rail rail_electric rail_fast ship" speed="27.78" length="22.74" shape="1177.66,989.24 1179.52,966.13"/>
        <lane id=":1066780674_2_1" index="1" disallow="tram rail_urban rail rail_electric rail_fast ship" speed="27.78" length="22.74" shape="1180.86,989.29 1182.73,966.63"/>
        <lane id=":1066780674_2_2" index="2" disallow="tram rail_urban rail rail_electric rail_fast ship" speed="27.78" length="22.74" shape="1184.06,989.34 1185.94,967.12"/>
    </edge>
    <edge id=":1066780710_0" function="internal">
        <lane id=":1066780710_0_0" index="0" disallow="tram rail_urban rail rail_electric rail_fast ship" speed="11.81" length="7.79" shape="1412.64,948.61 1410.76,947.24 1409.44,946.23 1408.00,945.62 1405.77,945.41"/>
    </edge>
    <edge id=":1066780710_1" function="internal">
        <lane id=":1066780710_1_0" index="0" disallow="tram rail_urban rail rail_electric rail_fast ship" speed="27.78" length="6.68" shape="1412.10,943.79 1410.20,943.98 1408.94,944.54 1407.68,945.14 1405.77,945.41"/>
        <lane id=":1066780710_1_1" index="1" disallow="tram rail_urban rail rail_electric rail_fast ship" speed="27.78" length="6.68" shape="1412.24,940.59 1410.30,940.78 1409.01,941.35 1407.72,941.94 1405.77,942.21"/>
    </edge>
    <edge id=":1066780720_0" function="internal">
        <lane id=":1066780720_0_0" index="0" disallow="tram rail_urban rail rail_electric rail_fast ship" speed="6.94" length="10.34" shape="1380.21,1039.08 1382.77,1040.93 1385.13,1041.67 1387.31,1041.29 1389.31,1039.79"/>
    </edge>
    <edge id=":1066780720_1" function="internal">
        <lane id=":1066780720_1_0" index="0" disallow="tram rail_urban rail rail_electric rail_fast ship" speed="13.89" length="14.32" shape="1380.21,1039.08 1390.84,1048.68"/>
    </edge>
    <edge id=":1066780720_2" function="internal">
        <lane id=":1066780720_2_0" index="0" disallow="tram rail_urban rail rail_electric rail_fast ship" speed="7.32" length="11.67" shape="1380.21,1039.08 1382.81,1041.92 1384.14,1044.53 1384.19,1046.93 1382.96,1049.10"/>
    </edge>
    <edge id=":1066780720_3" function="internal">
        <lane id=":1066780720_3_0" index="0" disallow="tram rail_urban rail rail_electric rail_fast ship" speed="13.89" length="11.30" shape="1380.59,1046.95 1382.89,1044.78 1384.93,1043.36 1386.98,1041.94 1389.31,1039.79"/>
    </edge>
    <edge id=":1066780720_4" function="internal">
        <lane id=":1066780720_4_0" index="0" disallow="tram rail_urban rail rail_electric rail_fast ship" speed="7.32" length="2.49" shape="1380.59,1046.95 1382.63,1045.51"/>
    </edge>
    <edge id=":1066780720_5" function="internal">
        <lane id=":1066780720_5_0" index="0" disallow="tram rail_urban rail rail_electric rail_fast ship" speed="3.65" length="1.93" shape="1380.59,1046.95 1381.99,1046.60 1382.46,1046.73"/>
    </edge>
    <edge id=":1066780720_6" function="internal">
        <lane id=":1066780720_6_0" index="0" disallow="tram rail_urban rail rail_electric rail_fast ship" speed="7.32" length="9.18" shape="1382.63,1045.51 1385.02,1045.32 1387.75,1046.38 1390.84,1048.68"/>
    </edge>
    <edge id=":1066780720_7" function="internal">
        <lane id=":1066780720_7_0" index="0" disallow="tram rail_urban rail rail_electric rail_fast ship" speed="3.65" length="2.74" shape="1382.46,1046.73 1382.85,1046.84 1383.18,1047.67 1382.96,1049.10"/>
    </edge>
    <edge id=":1066780745_0" function="internal">
        <lane id=":1066780745_0_0" index="0" disallow="tram rail_urban rail rail_electric rail_fast ship" speed="25.00" length="8.21" shape="1587.66,948.09 1589.99,948.74 1591.48,949.54 1592.98,950.33 1595.31,950.93"/>
    </edge>
    <edge id=":1066780745_1" function="internal">
        <lane id=":1066780745_1_0" index="0" disallow="tram rail_urban rail rail_electric rail_fast ship" speed="27.78" length="8.21" shape="1587.17,951.33 1589.58,951.44 1591.24,951.13 1592.90,950.83 1595.31,950.93"/>
        <lane id=":1066780745_1_1" index="1" disallow="tram rail_urban rail rail_electric rail_fast ship" speed="27.78" length="8.21" shape="1586.69,954.49 1589.10,954.60 1590.77,954.30 1592.43,953.99 1594.84,954.10"/>
        <lane id=":1066780745_1_2" index="2" disallow="tram rail_urban rail rail_electric rail_fast ship" speed="27.78" length="8.21" shape="1586.21,957.65 1588.62,957.77 1590.29,957.46 1591.96,957.16 1594.37,957.26"/>
    </edge>
    <edge id=":1090750565_0" function="internal">
        <lane id=":1090750565_0_0" index="0" disallow="tram rail_urban rail rail_electric rail_fast ship" speed="8.33" length="11.35" shape="2653.43,1146.09 2652.72,1134.76"/>
    </edge>
    <edge id=":1090750565_1" function="internal">
        <lane id=":1090750565_1_0" index="0" disallow="tram rail_urban rail rail_electric rail_fast ship" speed="7.27" length="11.77" shape="2653.43,1146.09 2653.81,1143.57 2655.35,1141.71 2658.04,1140.53 2661.88,1140.01"/>
    </edge>
    <edge id=":1090750565_2" function="internal">
        <lane id=":1090750565_2_0" index="0" disallow="tram rail_urban rail rail_electric rail_fast ship" speed="3.65" length="4.67" shape="2653.43,1146.09 2654.15,1144.84 2654.92,1144.38 2655.74,1144.73 2656.62,1145.87"/>
    </edge>
    <edge id=":1090750565_3" function="internal">
        <lane id=":1090750565_3_0" index="0" disallow="tram rail_urban rail rail_electric rail_fast ship" speed="6.59" length="9.16" shape="2655.92,1134.58 2656.41,1137.04 2657.57,1138.77 2659.39,1139.76 2661.88,1140.01"/>
    </edge>
    <edge id=":1090750565_4" function="internal">
        <lane id=":1090750565_4_0" index="0" disallow="tram rail_urban rail rail_electric rail_fast ship" speed="8.33" length="11.32" shape="2655.92,1134.58 2656.62,1145.87"/>
    </edge>
    <edge id=":1090750565_5" function="internal">
        <lane id=":1090750565_5_0" index="0" disallow="tram rail_urban rail rail_electric rail_fast ship" speed="3.65" length="4.67" shape="2655.92,1134.58 2655.18,1135.82 2654.41,1136.27 2653.59,1135.91 2652.72,1134.76"/>
    </edge>
    <edge id=":1090750565_6" function="internal">
        <lane id=":1090750565_6_0" index="0" disallow="tram rail_urban rail rail_electric rail_fast ship" speed="6.47" length="9.03" shape="2647.42,1140.61 2649.86,1140.16 2651.56,1139.03 2652.51,1137.23 2652.72,1134.76"/>
    </edge>
    <edge id=":1090750565_7" function="internal">
        <lane id=":1090750565_7_0" index="0" disallow="tram rail_urban rail rail_electric rail_fast ship" speed="13.89" length="14.47" shape="2647.42,1140.61 2661.88,1140.01"/>
    </edge>
    <edge id=":1090750565_8" function="internal">
        <lane id=":1090750565_8_0" index="0" disallow="tram rail_urban rail rail_electric rail_fast ship" speed="7.43" length="11.86" shape="2647.42,1140.61 2651.30,1140.80 2654.13,1141.74 2655.90,1143.43 2656.62,1145.87"/>
    </edge>
    <edge id=":1090750577_0" function="internal">
        <lane id=":1090750577_0_0" index="0" disallow="tram rail_urban rail rail_electric rail_fast ship" speed="3.65" length="4.67" shape="2662.81,1275.27 2662.06,1276.50 2661.28,1276.94 2660.47,1276.58 2659.61,1275.41"/>
    </edge>
    <edge id=":1143024218_0" function="internal">
        <lane id=":1143024218_0_0" index="0" disallow="tram rail_urban rail rail_electric rail_fast ship" speed="13.89" length="9.50" shape="2204.14,1047.95 2201.90,1049.62 2200.53,1050.97 2199.29,1052.48 2197.45,1054.61"/>
    </edge>
    <edge id=":1143024218_1" function="internal">
        <lane id=":1143024218_1_0" index="0" disallow="tram rail_urban rail rail_electric rail_fast ship" speed="5.72" length="6.84" shape="2204.14,1047.95 2200.93,1049.83 2198.59,1050.53 2197.96,1050.31"/>
    </edge>
    <edge id=":1143024218_4" function="internal">
        <lane id=":1143024218_4_0" index="0" disallow="tram rail_urban rail rail_electric rail_fast ship" speed="5.72" length="2.67" shape="2197.96,1050.31 2197.13,1050.03 2196.55,1048.33"/>
    </edge>
    <edge id=":1143024218_2" function="internal">
        <lane id=":1143024218_2_0" index="0" disallow="tram rail_urban rail rail_electric rail_fast ship" speed="7.08" length="4.50" shape="2195.09,1052.45 2195.78,1051.54 2196.26,1050.54 2196.51,1049.47 2196.55,1048.33"/>
    </edge>
    <edge id=":1143024218_3" function="internal">
        <lane id=":1143024218_3_0" index="0" disallow="tram rail_urban rail rail_electric rail_fast ship" speed="3.65" length="2.34" shape="2195.09,1052.45 2196.49,1052.11 2197.35,1052.35"/>
    </edge>
    <edge id=":1143024218_5" function="internal">
        <lane id=":1143024218_5_0" index="0" disallow="tram rail_urban rail rail_electric rail_fast ship" speed="3.65" length="2.34" shape="2197.35,1052.35 2197.67,1053.19 2197.45,1054.61"/>
    </edge>
    <edge id=":1143024221_0" function="internal">
        <lane id=":1143024221_0_0" index="0" disallow="tram rail_urban rail rail_electric rail_fast ship" speed="25.00" length="4.34" shape="2668.33,821.30 2667.26,820.69 2666.70,819.94 2666.15,819.20 2665.07,818.60"/>
    </edge>
    <edge id=":1143024221_1" function="internal">
        <lane id=":1143024221_1_0" index="0" disallow="tram rail_urban rail rail_electric rail_fast ship" speed="27.78" length="4.39" shape="2669.32,818.26 2668.26,817.63 2667.76,816.83 2667.27,816.00 2666.24,815.30"/>
    </edge>
    <edge id=":1143024303_0" function="internal">
        <lane id=":1143024303_0_0" index="0" disallow="tram rail_urban rail rail_electric rail_fast ship" speed="25.00" length="3.36" shape="2376.64,730.32 2375.81,730.87 2375.26,731.29 2374.76,731.75 2374.07,732.47"/>
    </edge>
    <edge id=":1143024303_1" function="internal">
        <lane id=":1143024303_1_0" index="0" disallow="tram rail_urban rail rail_electric rail_fast ship" speed="27.78" length="3.41" shape="2374.08,727.82 2371.75,730.27"/>
        <lane id=":1143024303_1_1" index="1" disallow="tram rail_urban rail rail_electric rail_fast ship" speed="27.78" length="3.41" shape="2371.77,725.61 2369.42,728.07"/>
        <lane id=":1143024303_1_2" index="2" disallow="tram rail_urban rail rail_electric rail_fast ship" speed="27.78" length="3.41" shape="2369.46,723.40 2367.10,725.87"/>
    </edge>
    <edge id=":1143024403_0" function="internal">
        <lane id=":1143024403_0_0" index="0" disallow="tram rail_urban rail rail_electric rail_fast ship" speed="6.57" length="9.02" shape="2195.88,1037.37 2195.39,1034.91 2194.26,1033.18 2192.50,1032.18 2190.09,1031.90"/>
    </edge>
    <edge id=":1143024403_1" function="internal">
        <lane id=":1143024403_1_0" index="0" disallow="tram rail_urban rail rail_electric rail_fast ship" speed="27.78" length="11.29" shape="2201.18,1031.92 2190.09,1031.90"/>
        <lane id=":1143024403_1_1" index="1" disallow="tram rail_urban rail rail_electric rail_fast ship" speed="27.78" length="11.29" shape="2201.28,1028.72 2189.99,1028.71"/>
        <lane id=":1143024403_1_2" index="2" disallow="tram rail_urban rail rail_electric rail_fast ship" speed="27.78" length="11.29" shape="2201.38,1025.52 2189.88,1025.51"/>
    </edge>
    <edge id=":1143024419_0" function="internal">
        <lane id=":1143024419_0_0" index="0" disallow="tram rail_urban rail rail_electric rail_fast ship" speed="13.89" length="0.87" shape="2080.71,1173.56 2080.52,1173.73 2080.40,1173.87 2080.32,1174.03 2080.24,1174.28"/>
    </edge>
    <edge id=":1143024419_1" function="internal">
        <lane id=":1143024419_1_0" index="0" disallow="tram rail_urban rail rail_electric rail_fast ship" speed="7.48" length="2.62" shape="2077.19,1173.32 2077.43,1172.58 2077.67,1172.10 2078.01,1171.69 2078.58,1171.16"/>
    </edge>
    <edge id=":1143037713_0" function="internal">
        <lane id=":1143037713_0_0" index="0" disallow="tram rail_urban rail rail_electric rail_fast ship" speed="3.65" length="4.67" shape="2425.37,1248.19 2424.59,1249.40 2423.79,1249.81 2422.99,1249.42 2422.17,1248.23"/>
    </edge>
    <edge id=":1143037715_0" function="internal">
        <lane id=":1143037715_0_0" index="0" disallow="tram rail_urban rail rail_electric rail_fast ship" speed="6.17" length="1.12" shape="2420.88,1153.59 2421.17,1152.51"/>
    </edge>
    <edge id=":1143037715_1" function="internal">
        <lane id=":1143037715_1_0" index="0" disallow="tram rail_urban rail rail_electric rail_fast ship" speed="3.65" length="1.17" shape="2420.88,1153.59 2421.52,1152.60"/>
    </edge>
    <edge id=":1143037715_4" function="internal">
        <lane id=":1143037715_4_0" index="0" disallow="tram rail_urban rail rail_electric rail_fast ship" speed="6.17" length="6.66" shape="2421.17,1152.51 2421.25,1152.21 2422.41,1151.18 2424.35,1150.50 2427.08,1150.17"/>
    </edge>
    <edge id=":1143037715_5" function="internal">
        <lane id=":1143037715_5_0" index="0" disallow="tram rail_urban rail rail_electric rail_fast ship" speed="3.65" length="3.50" shape="2421.52,1152.60 2421.67,1152.38 2422.46,1151.97 2423.27,1152.35 2424.08,1153.54"/>
    </edge>
    <edge id=":1143037715_2" function="internal">
        <lane id=":1143037715_2_0" index="0" disallow="tram rail_urban rail rail_electric rail_fast ship" speed="13.89" length="9.38" shape="2417.71,1150.56 2427.08,1150.17"/>
    </edge>
    <edge id=":1143037715_3" function="internal">
        <lane id=":1143037715_3_0" index="0" disallow="tram rail_urban rail rail_electric rail_fast ship" speed="6.06" length="7.81" shape="2417.71,1150.56 2420.48,1150.67 2422.47,1151.20 2423.67,1152.16 2424.08,1153.54"/>
    </edge>
    <edge id=":135435917#0-AddedOnRampNode_0" function="internal">
        <lane id=":135435917#0-AddedOnRampNode_0_0" index="0" disallow="tram rail_urban rail rail_electric rail_fast ship" speed="27.78" length="1.61" shape="1690.28,965.01 1690.04,966.60"/>
        <lane id=":135435917#0-AddedOnRampNode_0_1" index="1" disallow="tram rail_urban rail rail_electric rail_fast ship" speed="27.78" length="1.61" shape="1689.81,968.18 1689.57,969.77"/>
        <lane id=":135435917#0-AddedOnRampNode_0_2" index="2" disallow="tram rail_urban rail rail_electric rail_fast ship" speed="27.78" length="1.61" shape="1689.34,971.35 1689.10,972.94"/>
    </edge>
    <edge id=":1482866242_0" function="internal">
        <lane id=":1482866242_0_0" index="0" disallow="tram rail_urban rail rail_electric rail_fast ship" speed="3.65" length="4.67" shape="1878.65,1025.97 1878.26,1024.58 1878.47,1023.71 1879.30,1023.36 1880.73,1023.53"/>
    </edge>
    <edge id=":1482866244_0" function="internal">
        <lane id=":1482866244_0_0" index="0" disallow="tram rail_urban rail rail_electric rail_fast ship" speed="13.89" length="13.64" shape="1966.49,1090.23 1963.93,1092.67 1961.64,1095.02 1959.44,1097.45 1957.15,1100.15"/>
    </edge>
    <edge id=":1482866244_1" function="internal">
        <lane id=":1482866244_1_0" index="0" disallow="tram rail_urban rail rail_electric rail_fast ship" speed="8.28" length="5.56" shape="1966.49,1090.23 1963.45,1092.33 1961.64,1092.74"/>
    </edge>
    <edge id=":1482866244_2" function="internal">
        <lane id=":1482866244_2_0" index="0" disallow="tram rail_urban rail rail_electric rail_fast ship" speed="3.65" length="2.34" shape="1966.49,1090.23 1965.07,1090.46 1964.23,1090.14"/>
    </edge>
    <edge id=":1482866244_9" function="internal">
        <lane id=":1482866244_9_0" index="0" disallow="tram rail_urban rail rail_electric rail_fast ship" speed="8.28" length="8.35" shape="1961.64,1092.74 1960.36,1093.03 1957.21,1092.36 1954.00,1090.29"/>
    </edge>
    <edge id=":1482866244_10" function="internal">
        <lane id=":1482866244_10_0" index="0" disallow="tram rail_urban rail rail_electric rail_fast ship" speed="3.65" length="2.34" shape="1964.23,1090.14 1963.98,1089.28 1964.31,1087.88"/>
    </edge>
    <edge id=":1482866244_3" function="internal">
        <lane id=":1482866244_3_0" index="0" disallow="tram rail_urban rail rail_electric rail_fast ship" speed="6.83" length="9.17" shape="1956.08,1087.85 1958.21,1089.23 1960.29,1089.70 1962.33,1089.25 1964.31,1087.88"/>
    </edge>
    <edge id=":1482866244_4" function="internal">
        <lane id=":1482866244_4_0" index="0" disallow="tram rail_urban rail rail_electric rail_fast ship" speed="8.00" length="14.03" shape="1956.08,1087.85 1958.62,1090.73 1959.64,1093.74 1959.15,1096.88 1957.15,1100.15"/>
    </edge>
    <edge id=":1482866244_5" function="internal">
        <lane id=":1482866244_5_0" index="0" disallow="tram rail_urban rail rail_electric rail_fast ship" speed="3.65" length="4.67" shape="1956.08,1087.85 1956.47,1089.24 1956.26,1090.11 1955.43,1090.46 1954.00,1090.29"/>
    </edge>
    <edge id=":1482866244_6" function="internal">