<?xml version="1.0" encoding="UTF-8"?>

<!-- generated on 2022-12-06 14:06:53 by Eclipse SUMO netconvert Version 1.10.0
<configuration xmlns:xsi="http://www.w3.org/2001/XMLSchema-instance" xsi:noNamespaceSchemaLocation="http://sumo.dlr.de/xsd/netconvertConfiguration.xsd">

    <input>
        <sumo-net-file value="largeL.net.xml"/>
    </input>

    <output>
        <output-file value="largeLup.net.xml"/>
        <output.street-names value="true"/>
    </output>

    <processing>
        <geometry.min-radius.fix.railways value="false"/>
        <geometry.max-grade.fix value="false"/>
        <offset.disable-normalization value="true"/>
        <lefthand value="false"/>
    </processing>

    <edge_removal>
        <keep-edges.in-boundary value="3575.75,3264.83,-514.69,1185.77"/>
    </edge_removal>

    <junctions>
        <no-turnarounds value="true"/>
        <junctions.corner-detail value="5"/>
        <junctions.limit-turn-speed value="5.5"/>
        <rectangular-lane-cut value="false"/>
    </junctions>

    <pedestrian>
        <walkingareas value="false"/>
    </pedestrian>

    <report>
        <aggregate-warnings value="5"/>
    </report>

</configuration>
-->

<net version="1.9" junctionCornerDetail="5" limitTurnSpeed="5.50" xmlns:xsi="http://www.w3.org/2001/XMLSchema-instance" xsi:noNamespaceSchemaLocation="http://sumo.dlr.de/xsd/net_file.xsd">

    <location netOffset="-312195.61,-4666326.23" convBoundary="817.22,1021.19,2976.02,2285.07" origBoundary="24.725718,42.117759,24.792474,42.155549" projParameter="+proj=utm +zone=35 +ellps=WGS84 +datum=WGS84 +units=m +no_defs"/>

    <type id="highway.bridleway" priority="1" numLanes="1" speed="2.78" allow="pedestrian" oneway="1" width="2.00"/>
    <type id="highway.bus_guideway" priority="1" numLanes="1" speed="27.78" allow="bus" oneway="1"/>
    <type id="highway.cycleway" priority="1" numLanes="1" speed="8.33" allow="bicycle" oneway="1" width="1.00"/>
    <type id="highway.footway" priority="1" numLanes="1" speed="2.78" allow="pedestrian" oneway="1" width="2.00"/>
    <type id="highway.ford" priority="1" numLanes="1" speed="2.78" allow="army" oneway="1"/>
    <type id="highway.living_street" priority="2" numLanes="1" speed="2.78" disallow="tram rail_urban rail rail_electric rail_fast ship" oneway="1"/>
    <type id="highway.motorway" priority="14" numLanes="2" speed="39.44" allow="private emergency authority army vip passenger hov taxi bus coach delivery truck trailer motorcycle evehicle custom1 custom2" oneway="1"/>
    <type id="highway.motorway_link" priority="9" numLanes="1" speed="22.22" allow="private emergency authority army vip passenger hov taxi bus coach delivery truck trailer motorcycle evehicle custom1 custom2" oneway="1"/>
    <type id="highway.path" priority="1" numLanes="1" speed="2.78" allow="pedestrian bicycle" oneway="1" width="2.00"/>
    <type id="highway.pedestrian" priority="1" numLanes="1" speed="2.78" allow="pedestrian" oneway="1" width="2.00"/>
    <type id="highway.primary" priority="12" numLanes="2" speed="27.78" disallow="tram rail_urban rail rail_electric rail_fast ship" oneway="1"/>
    <type id="highway.primary_link" priority="7" numLanes="1" speed="22.22" disallow="tram rail_urban rail rail_electric rail_fast ship" oneway="1"/>
    <type id="highway.raceway" priority="15" numLanes="2" speed="83.33" allow="vip" oneway="1"/>
    <type id="highway.residential" priority="3" numLanes="1" speed="13.89" disallow="tram rail_urban rail rail_electric rail_fast ship" oneway="1"/>
    <type id="highway.secondary" priority="11" numLanes="1" speed="27.78" disallow="tram rail_urban rail rail_electric rail_fast ship" oneway="1"/>
    <type id="highway.secondary_link" priority="6" numLanes="1" speed="22.22" disallow="tram rail_urban rail rail_electric rail_fast ship" oneway="1"/>
    <type id="highway.service" priority="1" numLanes="1" speed="5.56" allow="pedestrian delivery bicycle" oneway="1"/>
    <type id="highway.stairs" priority="1" numLanes="1" speed="1.39" allow="pedestrian" oneway="1" width="2.00"/>
    <type id="highway.step" priority="1" numLanes="1" speed="1.39" allow="pedestrian" oneway="1" width="2.00"/>
    <type id="highway.steps" priority="1" numLanes="1" speed="1.39" allow="pedestrian" oneway="1" width="2.00"/>
    <type id="highway.tertiary" priority="10" numLanes="1" speed="22.22" disallow="tram rail_urban rail rail_electric rail_fast ship" oneway="1"/>
    <type id="highway.tertiary_link" priority="5" numLanes="1" speed="22.22" disallow="tram rail_urban rail rail_electric rail_fast ship" oneway="1"/>
    <type id="highway.track" priority="1" numLanes="1" speed="5.56" allow="pedestrian motorcycle moped bicycle" oneway="1"/>
    <type id="highway.trunk" priority="13" numLanes="2" speed="27.78" disallow="pedestrian bicycle tram rail_urban rail rail_electric rail_fast ship" oneway="1"/>
    <type id="highway.trunk_link" priority="8" numLanes="1" speed="22.22" disallow="pedestrian bicycle tram rail_urban rail rail_electric rail_fast ship" oneway="1"/>
    <type id="highway.unclassified" priority="4" numLanes="1" speed="13.89" disallow="tram rail_urban rail rail_electric rail_fast ship" oneway="1"/>
    <type id="highway.unsurfaced" priority="1" numLanes="1" speed="8.33" disallow="tram rail_urban rail rail_electric rail_fast ship" oneway="1"/>
    <type id="railway.highspeed" priority="21" numLanes="1" speed="69.44" allow="rail_fast" oneway="1"/>
    <type id="railway.light_rail" priority="19" numLanes="1" speed="27.78" allow="rail_urban" oneway="1"/>
    <type id="railway.preserved" priority="16" numLanes="1" speed="27.78" allow="rail" oneway="1"/>
    <type id="railway.rail" priority="20" numLanes="1" speed="44.44" allow="rail" oneway="1"/>
    <type id="railway.subway" priority="18" numLanes="1" speed="27.78" allow="rail_urban" oneway="1"/>
    <type id="railway.tram" priority="17" numLanes="1" speed="13.89" allow="tram" oneway="1"/>

    <edge id=":1016166380_0" function="internal">
        <lane id=":1016166380_0_0" index="0" disallow="tram rail_urban rail rail_electric rail_fast ship" speed="25.00" length="17.18" shape="2196.43,1900.66 2198.34,1903.71 2200.55,1906.64 2203.49,1909.82 2207.58,1913.62"/>
    </edge>
    <edge id=":1016166380_1" function="internal">
        <lane id=":1016166380_1_0" index="0" disallow="tram rail_urban rail rail_electric rail_fast ship" speed="27.78" length="17.69" shape="2192.98,1903.60 2197.20,1906.72 2200.34,1908.53 2203.45,1910.38 2207.58,1913.62"/>
        <lane id=":1016166380_1_1" index="1" disallow="tram rail_urban rail rail_electric rail_fast ship" speed="27.78" length="17.69" shape="2190.94,1906.07 2195.14,1909.17 2198.27,1910.97 2201.36,1912.80 2205.46,1916.02"/>
    </edge>
    <edge id=":1016196724_0" function="internal">
        <lane id=":1016196724_0_0" index="0" disallow="tram rail_urban rail rail_electric rail_fast ship" speed="8.74" length="9.63" shape="1262.00,1718.76 1260.88,1716.51 1259.36,1714.74 1257.44,1713.45 1255.11,1712.64"/>
    </edge>
    <edge id=":1016196724_1" function="internal">
        <lane id=":1016196724_1_0" index="0" disallow="tram rail_urban rail rail_electric rail_fast ship" speed="6.11" length="11.12" shape="1262.00,1718.76 1261.08,1715.12 1261.44,1712.72 1263.09,1711.58 1266.02,1711.68"/>
    </edge>
    <edge id=":1016196724_2" function="internal">
        <lane id=":1016196724_2_0" index="0" disallow="tram rail_urban rail rail_electric rail_fast ship" speed="27.78" length="10.51" shape="1265.39,1714.81 1255.11,1712.64"/>
    </edge>
    <edge id=":1016196724_3" function="internal">
        <lane id=":1016196724_3_0" index="0" disallow="tram rail_urban rail rail_electric rail_fast ship" speed="8.10" length="9.38" shape="1259.47,1705.70 1260.38,1707.92 1261.77,1709.65 1263.66,1710.91 1266.02,1711.68"/>
    </edge>
    <edge id=":1016196724_4" function="internal">
        <lane id=":1016196724_4_0" index="0" disallow="tram rail_urban rail rail_electric rail_fast ship" speed="27.78" length="10.44" shape="1255.81,1709.51 1266.02,1711.68"/>
    </edge>
    <edge id=":1016196730_0" function="internal">
        <lane id=":1016196730_0_0" index="0" disallow="tram rail_urban rail rail_electric rail_fast ship" speed="13.89" length="9.47" shape="2705.57,2055.66 2696.25,2054.00"/>
    </edge>
    <edge id=":1016196730_1" function="internal">
        <lane id=":1016196730_1_0" index="0" disallow="tram rail_urban rail rail_electric rail_fast ship" speed="6.21" length="7.90" shape="2705.57,2055.66 2702.90,2055.03 2701.05,2054.11 2700.02,2052.91 2699.80,2051.42"/>
    </edge>
    <edge id=":1016196730_2" function="internal">
        <lane id=":1016196730_2_0" index="0" disallow="tram rail_urban rail rail_electric rail_fast ship" speed="6.01" length="1.33" shape="2702.98,2051.80 2702.48,2053.03"/>
    </edge>
    <edge id=":1016196730_3" function="internal">
        <lane id=":1016196730_3_0" index="0" disallow="tram rail_urban rail rail_electric rail_fast ship" speed="3.65" length="1.44" shape="2702.98,2051.80 2702.04,2052.90"/>
    </edge>
    <edge id=":1016196730_4" function="internal">
        <lane id=":1016196730_4_0" index="0" disallow="tram rail_urban rail rail_electric rail_fast ship" speed="6.01" length="6.64" shape="2702.48,2053.03 2702.40,2053.23 2701.09,2054.07 2699.04,2054.33 2696.25,2054.00"/>
    </edge>
    <edge id=":1016196730_5" function="internal">
        <lane id=":1016196730_5_0" index="0" disallow="tram rail_urban rail rail_electric rail_fast ship" speed="3.65" length="3.23" shape="2702.04,2052.90 2701.20,2053.20 2700.45,2052.71 2699.80,2051.42"/>
    </edge>
    <edge id=":1016196791_0" function="internal">
        <lane id=":1016196791_0_0" index="0" disallow="tram rail_urban rail rail_electric rail_fast ship" speed="6.48" length="9.10" shape="2630.54,1718.12 2628.02,1718.09 2626.12,1718.87 2624.83,1720.46 2624.16,1722.85"/>
    </edge>
    <edge id=":1016196791_1" function="internal">
        <lane id=":1016196791_1_0" index="0" disallow="tram rail_urban rail rail_electric rail_fast ship" speed="13.89" length="14.46" shape="2630.54,1718.12 2616.25,1715.86"/>
    </edge>
    <edge id=":1016196791_2" function="internal">
        <lane id=":1016196791_2_0" index="0" disallow="tram rail_urban rail rail_electric rail_fast ship" speed="7.92" length="6.00" shape="2630.54,1718.12 2626.74,1716.97 2625.19,1715.65"/>
    </edge>
    <edge id=":1016196791_3" function="internal">
        <lane id=":1016196791_3_0" index="0" disallow="tram rail_urban rail rail_electric rail_fast ship" speed="3.65" length="2.34" shape="2630.54,1718.12 2629.47,1717.15 2629.20,1716.30"/>
    </edge>
    <edge id=":1016196791_16" function="internal">
        <lane id=":1016196791_16_0" index="0" disallow="tram rail_urban rail rail_electric rail_fast ship" speed="7.92" length="8.37" shape="2625.19,1715.65 2624.29,1714.89 2623.17,1711.86 2623.39,1707.91"/>
    </edge>
    <edge id=":1016196791_17" function="internal">
        <lane id=":1016196791_17_0" index="0" disallow="tram rail_urban rail rail_electric rail_fast ship" speed="3.65" length="2.34" shape="2629.20,1716.30 2629.71,1715.57 2631.02,1714.96"/>
    </edge>
    <edge id=":1016196791_4" function="internal">
        <lane id=":1016196791_4_0" index="0" disallow="tram rail_urban rail rail_electric rail_fast ship" speed="6.41" length="9.04" shape="2626.52,1708.54 2626.39,1711.02 2627.09,1712.92 2628.63,1714.23 2631.02,1714.96"/>
    </edge>
    <edge id=":1016196791_5" function="internal">
        <lane id=":1016196791_5_0" index="0" disallow="tram rail_urban rail rail_electric rail_fast ship" speed="8.33" length="14.51" shape="2626.52,1708.54 2624.16,1722.85"/>
    </edge>
    <edge id=":1016196791_6" function="internal">
        <lane id=":1016196791_6_0" index="0" disallow="tram rail_urban rail rail_electric rail_fast ship" speed="8.12" length="14.27" shape="2626.52,1708.54 2625.23,1712.26 2623.08,1714.73 2620.09,1715.93 2616.25,1715.86"/>
    </edge>
    <edge id=":1016196791_7" function="internal">
        <lane id=":1016196791_7_0" index="0" disallow="tram rail_urban rail rail_electric rail_fast ship" speed="3.65" length="4.67" shape="2626.52,1708.54 2625.50,1709.55 2624.64,1709.79 2623.93,1709.24 2623.39,1707.91"/>
    </edge>
    <edge id=":1016196791_8" function="internal">
        <lane id=":1016196791_8_0" index="0" disallow="tram rail_urban rail rail_electric rail_fast ship" speed="6.66" length="9.24" shape="2616.77,1712.70 2619.24,1712.74 2621.16,1711.95 2622.54,1710.34 2623.39,1707.91"/>
    </edge>
    <edge id=":1016196791_9" function="internal">
        <lane id=":1016196791_9_0" index="0" disallow="tram rail_urban rail rail_electric rail_fast ship" speed="13.89" length="14.42" shape="2616.77,1712.70 2631.02,1714.96"/>
    </edge>
    <edge id=":1016196791_10" function="internal">
        <lane id=":1016196791_10_0" index="0" disallow="tram rail_urban rail rail_electric rail_fast ship" speed="8.11" length="5.81" shape="2616.77,1712.70 2620.43,1713.86 2621.94,1715.14"/>
    </edge>
    <edge id=":1016196791_11" function="internal">
        <lane id=":1016196791_11_0" index="0" disallow="tram rail_urban rail rail_electric rail_fast ship" speed="3.65" length="2.34" shape="2616.77,1712.70 2617.83,1713.68 2618.09,1714.54"/>
    </edge>
    <edge id=":1016196791_18" function="internal">
        <lane id=":1016196791_18_0" index="0" disallow="tram rail_urban rail rail_electric rail_fast ship" speed="8.11" length="8.40" shape="2621.94,1715.14 2622.88,1715.94 2624.13,1718.93 2624.16,1722.85"/>
    </edge>
    <edge id=":1016196791_19" function="internal">
        <lane id=":1016196791_19_0" index="0" disallow="tram rail_urban rail rail_electric rail_fast ship" speed="3.65" length="2.34" shape="2618.09,1714.54 2617.57,1715.26 2616.25,1715.86"/>
    </edge>
    <edge id=":1016196791_12" function="internal">
        <lane id=":1016196791_12_0" index="0" disallow="tram rail_urban rail rail_electric rail_fast ship" speed="6.63" length="9.18" shape="2620.99,1722.44 2620.97,1719.90 2620.17,1717.95 2618.60,1716.61 2616.25,1715.86"/>
    </edge>
    <edge id=":1016196791_13" function="internal">
        <lane id=":1016196791_13_0" index="0" disallow="tram rail_urban rail rail_electric rail_fast ship" speed="8.33" length="14.73" shape="2620.99,1722.44 2623.39,1707.91"/>
    </edge>
    <edge id=":1016196791_14" function="internal">
        <lane id=":1016196791_14_0" index="0" disallow="tram rail_urban rail rail_electric rail_fast ship" speed="7.98" length="14.34" shape="2620.99,1722.44 2622.05,1718.66 2624.07,1716.15 2627.06,1714.92 2631.02,1714.96"/>
    </edge>
    <edge id=":1016196791_15" function="internal">
        <lane id=":1016196791_15_0" index="0" disallow="tram rail_urban rail rail_electric rail_fast ship" speed="3.65" length="4.67" shape="2620.99,1722.44 2621.94,1721.35 2622.78,1721.06 2623.52,1721.56 2624.16,1722.85"/>
    </edge>
    <edge id=":1016196802_0" function="internal">
        <lane id=":1016196802_0_0" index="0" disallow="tram rail_urban rail rail_electric rail_fast ship" speed="6.52" length="9.05" shape="1074.72,1359.35 1072.64,1358.00 1070.62,1357.64 1068.68,1358.27 1066.80,1359.89"/>
    </edge>
    <edge id=":1016196802_1" function="internal">
        <lane id=":1016196802_1_0" index="0" disallow="tram rail_urban rail rail_electric rail_fast ship" speed="11.11" length="11.22" shape="1074.72,1359.35 1066.25,1351.99"/>
    </edge>
    <edge id=":1016196802_2" function="internal">
        <lane id=":1016196802_2_0" index="0" disallow="tram rail_urban rail rail_electric rail_fast ship" speed="13.89" length="11.22" shape="1074.23,1351.47 1066.80,1359.89"/>
    </edge>
    <edge id=":1016196802_3" function="internal">
        <lane id=":1016196802_3_0" index="0" disallow="tram rail_urban rail rail_electric rail_fast ship" speed="6.57" length="9.09" shape="1074.23,1351.47 1072.33,1353.08 1070.36,1353.70 1068.33,1353.34 1066.25,1351.99"/>
    </edge>
    <edge id=":1066719823_0" function="internal">
        <lane id=":1066719823_0_0" index="0" disallow="tram rail_urban rail rail_electric rail_fast ship" speed="6.55" length="9.06" shape="1318.53,1343.88 1317.06,1345.84 1316.57,1347.82 1317.06,1349.82 1318.54,1351.86"/>
    </edge>
    <edge id=":1066719823_1" function="internal">
        <lane id=":1066719823_1_0" index="0" disallow="tram rail_urban rail rail_electric rail_fast ship" speed="13.89" length="11.18" shape="1318.53,1343.88 1310.86,1352.02"/>
    </edge>
    <edge id=":1066719823_2" function="internal">
        <lane id=":1066719823_2_0" index="0" disallow="tram rail_urban rail rail_electric rail_fast ship" speed="13.89" length="11.22" shape="1310.44,1344.11 1312.80,1346.20 1314.60,1347.87 1316.34,1349.59 1318.54,1351.86"/>
    </edge>
    <edge id=":1066719823_3" function="internal">
        <lane id=":1066719823_3_0" index="0" disallow="tram rail_urban rail rail_electric rail_fast ship" speed="6.50" length="4.48" shape="1310.44,1344.11 1312.03,1345.97 1312.63,1347.91"/>
    </edge>
    <edge id=":1066719823_4" function="internal">
        <lane id=":1066719823_4_0" index="0" disallow="tram rail_urban rail rail_electric rail_fast ship" speed="6.50" length="4.56" shape="1312.63,1347.91 1312.24,1349.93 1310.86,1352.02"/>
    </edge>
    <edge id=":1066719919_0" function="internal">
        <lane id=":1066719919_0_0" index="0" disallow="tram rail_urban rail rail_electric rail_fast ship" speed="6.45" length="9.03" shape="1266.05,1297.83 1264.64,1299.87 1264.24,1301.87 1264.85,1303.80 1266.47,1305.69"/>
    </edge>
    <edge id=":1066719919_1" function="internal">
        <lane id=":1066719919_1_0" index="0" disallow="tram rail_urban rail rail_electric rail_fast ship" speed="3.65" length="2.45" shape="1266.05,1297.83 1264.65,1298.17 1263.79,1297.92 1263.75,1297.81"/>
    </edge>
    <edge id=":1066719919_4" function="internal">
        <lane id=":1066719919_4_0" index="0" disallow="tram rail_urban rail rail_electric rail_fast ship" speed="3.65" length="2.22" shape="1263.75,1297.81 1263.48,1297.08 1263.70,1295.66"/>
    </edge>
    <edge id=":1066719919_2" function="internal">
        <lane id=":1066719919_2_0" index="0" disallow="tram rail_urban rail rail_electric rail_fast ship" speed="10.26" length="11.07" shape="1254.19,1300.65 1256.56,1300.40 1258.93,1299.49 1261.31,1297.91 1263.70,1295.66"/>
    </edge>
    <edge id=":1066719919_3" function="internal">
        <lane id=":1066719919_3_0" index="0" disallow="tram rail_urban rail rail_electric rail_fast ship" speed="13.55" length="13.57" shape="1254.19,1300.65 1257.68,1301.06 1260.79,1302.01 1263.67,1303.54 1266.47,1305.69"/>
    </edge>
    <edge id=":1066780656_0" function="internal">
        <lane id=":1066780656_0_0" index="0" disallow="tram rail_urban rail rail_electric rail_fast ship" speed="13.89" length="13.03" shape="1448.61,1684.35 1446.18,1681.91 1444.24,1679.52 1442.29,1677.14 1439.83,1674.75"/>
    </edge>
    <edge id=":1066780656_1" function="internal">
        <lane id=":1066780656_1_0" index="0" disallow="tram rail_urban rail rail_electric rail_fast ship" speed="3.65" length="4.67" shape="1448.61,1684.35 1448.22,1682.96 1448.45,1682.09 1449.27,1681.75 1450.70,1681.93"/>
    </edge>
    <edge id=":1066780656_2" function="internal">
        <lane id=":1066780656_2_0" index="0" disallow="tram rail_urban rail rail_electric rail_fast ship" speed="7.00" length="10.51" shape="1448.68,1672.86 1447.47,1675.01 1447.40,1677.24 1448.48,1679.54 1450.70,1681.93"/>
    </edge>
    <edge id=":1066780656_3" function="internal">
        <lane id=":1066780656_3_0" index="0" disallow="tram rail_urban rail rail_electric rail_fast ship" speed="6.91" length="6.80" shape="1448.68,1672.86 1446.40,1675.02 1444.17,1676.05 1442.97,1676.00"/>
    </edge>
    <edge id=":1066780656_6" function="internal">
        <lane id=":1066780656_6_0" index="0" disallow="tram rail_urban rail rail_electric rail_fast ship" speed="6.91" length="3.46" shape="1442.97,1676.00 1441.98,1675.96 1439.83,1674.75"/>
    </edge>
    <edge id=":1066780656_4" function="internal">
        <lane id=":1066780656_4_0" index="0" disallow="tram rail_urban rail rail_electric rail_fast ship" speed="9.22" length="12.52" shape="1442.07,1686.42 1442.69,1682.64 1442.52,1679.44 1441.56,1676.81 1439.83,1674.75"/>
    </edge>
    <edge id=":1066780656_5" function="internal">
        <lane id=":1066780656_5_0" index="0" disallow="tram rail_urban rail rail_electric rail_fast ship" speed="6.63" length="8.66" shape="1442.07,1686.42 1443.53,1682.44 1445.45,1680.36 1447.05,1680.25"/>
    </edge>
    <edge id=":1066780656_7" function="internal">
        <lane id=":1066780656_7_0" index="0" disallow="tram rail_urban rail rail_electric rail_fast ship" speed="6.63" length="4.14" shape="1447.05,1680.25 1447.84,1680.19 1450.70,1681.93"/>
    </edge>
    <edge id=":1066780658_0" function="internal">
        <lane id=":1066780658_0_0" index="0" disallow="tram rail_urban rail rail_electric rail_fast ship" speed="6.53" length="8.89" shape="1175.39,1893.31 1172.95,1893.50 1171.15,1894.41 1169.97,1896.04 1169.41,1898.39"/>
    </edge>
    <edge id=":1066780658_1" function="internal">
        <lane id=":1066780658_1_0" index="0" disallow="tram rail_urban rail rail_electric rail_fast ship" speed="27.78" length="10.91" shape="1170.27,1887.48 1169.41,1898.39"/>
        <lane id=":1066780658_1_1" index="1" disallow="tram rail_urban rail rail_electric rail_fast ship" speed="27.78" length="10.91" shape="1167.08,1887.27 1166.22,1898.11"/>
    </edge>
    <edge id=":1066780723_0" function="internal">
        <lane id=":1066780723_0_0" index="0" disallow="tram rail_urban rail rail_electric rail_fast ship" speed="6.51" length="8.89" shape="1497.55,1623.56 1495.46,1622.31 1493.47,1622.02 1491.56,1622.68 1489.75,1624.30"/>
    </edge>
    <edge id=":1066780723_1" function="internal">
        <lane id=":1066780723_1_0" index="0" disallow="tram rail_urban rail rail_electric rail_fast ship" speed="3.65" length="4.67" shape="1497.55,1623.56 1497.12,1622.18 1497.31,1621.31 1498.12,1620.94 1499.56,1621.07"/>
    </edge>
    <edge id=":1066780723_2" function="internal">
        <lane id=":1066780723_2_0" index="0" disallow="tram rail_urban rail rail_electric rail_fast ship" speed="11.11" length="11.04" shape="1490.21,1615.26 1492.71,1617.12 1494.83,1618.23 1496.99,1619.30 1499.56,1621.07"/>
    </edge>
    <edge id=":1066780723_3" function="internal">
        <lane id=":1066780723_3_0" index="0" disallow="tram rail_urban rail rail_electric rail_fast ship" speed="6.93" length="10.22" shape="1490.21,1615.26 1491.72,1617.19 1492.15,1619.34 1491.49,1621.70 1489.75,1624.30"/>
    </edge>
    <edge id=":1066780742_0" function="internal">
        <lane id=":1066780742_0_0" index="0" disallow="tram rail_urban rail rail_electric rail_fast ship" speed="6.72" length="9.36" shape="1505.05,1855.65 1504.20,1858.11 1504.29,1860.27 1505.31,1862.11 1507.28,1863.63"/>
    </edge>
    <edge id=":1066780742_1" function="internal">
        <lane id=":1066780742_1_0" index="0" disallow="tram rail_urban rail rail_electric rail_fast ship" speed="22.22" length="11.49" shape="1505.05,1855.65 1499.59,1865.76"/>
    </edge>
    <edge id=":1066780742_2" function="internal">
        <lane id=":1066780742_2_0" index="0" disallow="tram rail_urban rail rail_electric rail_fast ship" speed="3.65" length="2.34" shape="1505.05,1855.65 1503.80,1856.36 1502.90,1856.36"/>
    </edge>
    <edge id=":1066780742_9" function="internal">
        <lane id=":1066780742_9_0" index="0" disallow="tram rail_urban rail rail_electric rail_fast ship" speed="3.65" length="2.34" shape="1502.90,1856.36 1502.37,1855.64 1502.19,1854.21"/>
    </edge>
    <edge id=":1066780742_3" function="internal">
        <lane id=":1066780742_3_0" index="0" disallow="tram rail_urban rail rail_electric rail_fast ship" speed="6.38" length="9.04" shape="1494.70,1856.44 1497.02,1857.38 1499.04,1857.31 1500.76,1856.26 1502.19,1854.21"/>
    </edge>
    <edge id=":1066780742_4" function="internal">
        <lane id=":1066780742_4_0" index="0" disallow="tram rail_urban rail rail_electric rail_fast ship" speed="13.89" length="14.48" shape="1494.70,1856.44 1507.28,1863.63"/>
    </edge>
    <edge id=":1066780742_5" function="internal">
        <lane id=":1066780742_5_0" index="0" disallow="tram rail_urban rail rail_electric rail_fast ship" speed="7.35" length="11.82" shape="1494.70,1856.44 1497.90,1858.70 1499.78,1861.01 1500.34,1863.36 1499.59,1865.76"/>
    </edge>
    <edge id=":1066780742_6" function="internal">
        <lane id=":1066780742_6_0" index="0" disallow="tram rail_urban rail rail_electric rail_fast ship" speed="22.22" length="11.30" shape="1496.82,1864.15 1502.19,1854.21"/>
    </edge>
    <edge id=":1066780742_7" function="internal">
        <lane id=":1066780742_7_0" index="0" disallow="tram rail_urban rail rail_electric rail_fast ship" speed="7.36" length="3.89" shape="1496.82,1864.15 1498.53,1862.31 1499.85,1861.91"/>
    </edge>
    <edge id=":1066780742_8" function="internal">
        <lane id=":1066780742_8_0" index="0" disallow="tram rail_urban rail rail_electric rail_fast ship" speed="3.65" length="2.34" shape="1496.82,1864.15 1498.12,1863.51 1499.01,1863.57"/>
    </edge>
    <edge id=":1066780742_10" function="internal">
        <lane id=":1066780742_10_0" index="0" disallow="tram rail_urban rail rail_electric rail_fast ship" speed="7.36" length="7.84" shape="1499.85,1861.91 1500.84,1861.61 1503.75,1862.05 1507.28,1863.63"/>
    </edge>
    <edge id=":1066780742_11" function="internal">
        <lane id=":1066780742_11_0" index="0" disallow="tram rail_urban rail rail_electric rail_fast ship" speed="3.65" length="2.34" shape="1499.01,1863.57 1499.50,1864.32 1499.59,1865.76"/>
    </edge>
    <edge id=":1066780756_0" function="internal">
        <lane id=":1066780756_0_0" index="0" disallow="tram rail_urban rail rail_electric rail_fast ship" speed="27.78" length="8.21" shape="1217.44,1705.25 1209.33,1703.96"/>
    </edge>
    <edge id=":1066780756_1" function="internal">
        <lane id=":1066780756_1_0" index="0" disallow="tram rail_urban rail rail_electric rail_fast ship" speed="5.95" length="4.46" shape="1217.44,1705.25 1214.67,1704.32 1213.80,1703.05"/>
    </edge>
    <edge id=":1066780756_4" function="internal">
        <lane id=":1066780756_4_0" index="0" disallow="tram rail_urban rail rail_electric rail_fast ship" speed="5.95" length="6.38" shape="1213.80,1703.05 1213.59,1702.74 1214.21,1700.51 1216.52,1697.63"/>
    </edge>
    <edge id=":1066780756_2" function="internal">
        <lane id=":1066780756_2_0" index="0" disallow="tram rail_urban rail rail_electric rail_fast ship" speed="8.25" length="7.71" shape="1209.76,1700.79 1211.39,1700.75 1213.06,1700.22 1214.77,1699.18 1216.52,1697.63"/>
    </edge>
    <edge id=":1066780756_3" function="internal">
        <lane id=":1066780756_3_0" index="0" disallow="tram rail_urban rail rail_electric rail_fast ship" speed="27.78" length="8.31" shape="1209.76,1700.79 1217.97,1702.09"/>
    </edge>
    <edge id=":1066780758_0" function="internal">
        <lane id=":1066780758_0_0" index="0" disallow="tram rail_urban rail rail_electric rail_fast ship" speed="6.99" length="10.49" shape="1329.80,1582.35 1327.62,1581.11 1325.38,1581.00 1323.08,1582.03 1320.72,1584.21"/>
    </edge>
    <edge id=":1066780758_1" function="internal">
        <lane id=":1066780758_1_0" index="0" disallow="tram rail_urban rail rail_electric rail_fast ship" speed="18.05" length="14.60" shape="1329.80,1582.35 1326.83,1580.18 1323.74,1578.29 1320.65,1576.42 1317.67,1574.25"/>
    </edge>
    <edge id=":1066780758_2" function="internal">
        <lane id=":1066780758_2_0" index="0" disallow="tram rail_urban rail rail_electric rail_fast ship" speed="7.57" length="12.83" shape="1329.80,1582.35 1327.14,1579.52 1325.92,1576.74 1326.14,1574.00 1327.79,1571.31"/>
    </edge>
    <edge id=":1066780758_3" function="internal">
        <lane id=":1066780758_3_0" index="0" disallow="tram rail_urban rail rail_electric rail_fast ship" speed="22.22" length="14.35" shape="1330.19,1573.43 1320.72,1584.21"/>
    </edge>
    <edge id=":1066780758_4" function="internal">
        <lane id=":1066780758_4_0" index="0" disallow="tram rail_urban rail rail_electric rail_fast ship" speed="8.09" length="5.82" shape="1330.19,1573.43 1327.25,1575.91 1325.36,1576.50"/>
    </edge>
    <edge id=":1066780758_5" function="internal">
        <lane id=":1066780758_5_0" index="0" disallow="tram rail_urban rail rail_electric rail_fast ship" speed="3.65" length="2.34" shape="1330.19,1573.43 1328.79,1573.80 1327.93,1573.57"/>
    </edge>
    <edge id=":1066780758_12" function="internal">
        <lane id=":1066780758_12_0" index="0" disallow="tram rail_urban rail rail_electric rail_fast ship" speed="8.09" length="8.38" shape="1325.36,1576.50 1324.18,1576.87 1320.99,1576.32 1317.67,1574.25"/>
    </edge>
    <edge id=":1066780758_13" function="internal">
        <lane id=":1066780758_13_0" index="0" disallow="tram rail_urban rail rail_electric rail_fast ship" speed="3.65" length="2.34" shape="1327.93,1573.57 1327.60,1572.74 1327.79,1571.31"/>
    </edge>
    <edge id=":1066780758_6" function="internal">
        <lane id=":1066780758_6_0" index="0" disallow="tram rail_urban rail rail_electric rail_fast ship" speed="6.62" length="9.16" shape="1319.73,1571.79 1321.87,1573.14 1323.93,1573.50 1325.91,1572.89 1327.79,1571.31"/>
    </edge>
    <edge id=":1066780758_7" function="internal">
        <lane id=":1066780758_7_0" index="0" disallow="tram rail_urban rail rail_electric rail_fast ship" speed="7.97" length="14.26" shape="1319.73,1571.79 1322.35,1574.71 1323.38,1577.75 1322.84,1580.92 1320.72,1584.21"/>
    </edge>
    <edge id=":1066780758_8" function="internal">