<?xml version="1.0" encoding="UTF-8"?>

<!-- generated on 2022-12-06 13:24:18 by Eclipse SUMO netconvert Version 1.10.0
<configuration xmlns:xsi="http://www.w3.org/2001/XMLSchema-instance" xsi:noNamespaceSchemaLocation="http://sumo.dlr.de/xsd/netconvertConfiguration.xsd">

    <input>
        <sumo-net-file value="large.net.xml"/>
    </input>

    <output>
        <output-file value="largeR.net.xml"/>
        <output.street-names value="true"/>
    </output>

    <processing>
        <geometry.min-radius.fix.railways value="false"/>
        <geometry.max-grade.fix value="false"/>
        <offset.disable-normalization value="true"/>
        <lefthand value="false"/>
    </processing>

    <edge_removal>
        <keep-edges.in-boundary value="2743.82,197.13,5119.77,3796.71"/>
    </edge_removal>

    <junctions>
        <no-turnarounds value="true"/>
        <junctions.corner-detail value="5"/>
        <junctions.limit-turn-speed value="5.5"/>
        <rectangular-lane-cut value="false"/>
    </junctions>

    <pedestrian>
        <walkingareas value="false"/>
    </pedestrian>

    <report>
        <aggregate-warnings value="5"/>
    </report>

</configuration>
-->

<net version="1.9" junctionCornerDetail="5" limitTurnSpeed="5.50" xmlns:xsi="http://www.w3.org/2001/XMLSchema-instance" xsi:noNamespaceSchemaLocation="http://sumo.dlr.de/xsd/net_file.xsd">

    <location netOffset="-312195.61,-4666326.23" convBoundary="2257.45,661.32,5031.19,2850.02" origBoundary="24.725718,42.117759,24.792474,42.155549" projParameter="+proj=utm +zone=35 +ellps=WGS84 +datum=WGS84 +units=m +no_defs"/>

    <type id="highway.bridleway" priority="1" numLanes="1" speed="2.78" allow="pedestrian" oneway="1" width="2.00"/>
    <type id="highway.bus_guideway" priority="1" numLanes="1" speed="27.78" allow="bus" oneway="1"/>
    <type id="highway.cycleway" priority="1" numLanes="1" speed="8.33" allow="bicycle" oneway="1" width="1.00"/>
    <type id="highway.footway" priority="1" numLanes="1" speed="2.78" allow="pedestrian" oneway="1" width="2.00"/>
    <type id="highway.ford" priority="1" numLanes="1" speed="2.78" allow="army" oneway="1"/>
    <type id="highway.living_street" priority="2" numLanes="1" speed="2.78" disallow="tram rail_urban rail rail_electric rail_fast ship" oneway="1"/>
    <type id="highway.motorway" priority="14" numLanes="2" speed="39.44" allow="private emergency authority army vip passenger hov taxi bus coach delivery truck trailer motorcycle evehicle custom1 custom2" oneway="1"/>
    <type id="highway.motorway_link" priority="9" numLanes="1" speed="22.22" allow="private emergency authority army vip passenger hov taxi bus coach delivery truck trailer motorcycle evehicle custom1 custom2" oneway="1"/>
    <type id="highway.path" priority="1" numLanes="1" speed="2.78" allow="pedestrian bicycle" oneway="1" width="2.00"/>
    <type id="highway.pedestrian" priority="1" numLanes="1" speed="2.78" allow="pedestrian" oneway="1" width="2.00"/>
    <type id="highway.primary" priority="12" numLanes="2" speed="27.78" disallow="tram rail_urban rail rail_electric rail_fast ship" oneway="1"/>
    <type id="highway.primary_link" priority="7" numLanes="1" speed="22.22" disallow="tram rail_urban rail rail_electric rail_fast ship" oneway="1"/>
    <type id="highway.raceway" priority="15" numLanes="2" speed="83.33" allow="vip" oneway="1"/>
    <type id="highway.residential" priority="3" numLanes="1" speed="13.89" disallow="tram rail_urban rail rail_electric rail_fast ship" oneway="1"/>
    <type id="highway.secondary" priority="11" numLanes="1" speed="27.78" disallow="tram rail_urban rail rail_electric rail_fast ship" oneway="1"/>
    <type id="highway.secondary_link" priority="6" numLanes="1" speed="22.22" disallow="tram rail_urban rail rail_electric rail_fast ship" oneway="1"/>
    <type id="highway.service" priority="1" numLanes="1" speed="5.56" allow="pedestrian delivery bicycle" oneway="1"/>
    <type id="highway.stairs" priority="1" numLanes="1" speed="1.39" allow="pedestrian" oneway="1" width="2.00"/>
    <type id="highway.step" priority="1" numLanes="1" speed="1.39" allow="pedestrian" oneway="1" width="2.00"/>
    <type id="highway.steps" priority="1" numLanes="1" speed="1.39" allow="pedestrian" oneway="1" width="2.00"/>
    <type id="highway.tertiary" priority="10" numLanes="1" speed="22.22" disallow="tram rail_urban rail rail_electric rail_fast ship" oneway="1"/>
    <type id="highway.tertiary_link" priority="5" numLanes="1" speed="22.22" disallow="tram rail_urban rail rail_electric rail_fast ship" oneway="1"/>
    <type id="highway.track" priority="1" numLanes="1" speed="5.56" allow="pedestrian motorcycle moped bicycle" oneway="1"/>
    <type id="highway.trunk" priority="13" numLanes="2" speed="27.78" disallow="pedestrian bicycle tram rail_urban rail rail_electric rail_fast ship" oneway="1"/>
    <type id="highway.trunk_link" priority="8" numLanes="1" speed="22.22" disallow="pedestrian bicycle tram rail_urban rail rail_electric rail_fast ship" oneway="1"/>
    <type id="highway.unclassified" priority="4" numLanes="1" speed="13.89" disallow="tram rail_urban rail rail_electric rail_fast ship" oneway="1"/>
    <type id="highway.unsurfaced" priority="1" numLanes="1" speed="8.33" disallow="tram rail_urban rail rail_electric rail_fast ship" oneway="1"/>
    <type id="railway.highspeed" priority="21" numLanes="1" speed="69.44" allow="rail_fast" oneway="1"/>
    <type id="railway.light_rail" priority="19" numLanes="1" speed="27.78" allow="rail_urban" oneway="1"/>
    <type id="railway.preserved" priority="16" numLanes="1" speed="27.78" allow="rail" oneway="1"/>
    <type id="railway.rail" priority="20" numLanes="1" speed="44.44" allow="rail" oneway="1"/>
    <type id="railway.subway" priority="18" numLanes="1" speed="27.78" allow="rail_urban" oneway="1"/>
    <type id="railway.tram" priority="17" numLanes="1" speed="13.89" allow="tram" oneway="1"/>

    <edge id=":1128611463_0" function="internal">
        <lane id=":1128611463_0_0" index="0" disallow="tram rail_urban rail rail_electric rail_fast ship" speed="27.78" length="0.29" shape="2978.72,2451.00 2978.71,2450.73"/>
        <lane id=":1128611463_0_1" index="1" disallow="tram rail_urban rail rail_electric rail_fast ship" speed="27.78" length="0.29" shape="2981.91,2450.89 2981.90,2450.58"/>
    </edge>
    <edge id=":1137920506_0" function="internal">
        <lane id=":1137920506_0_0" index="0" disallow="tram rail_urban rail rail_electric rail_fast ship" speed="6.51" length="8.97" shape="2954.56,1859.78 2954.11,1857.36 2952.99,1855.66 2951.22,1854.68 2948.77,1854.41"/>
    </edge>
    <edge id=":1137920506_1" function="internal">
        <lane id=":1137920506_1_0" index="0" disallow="tram rail_urban rail rail_electric rail_fast ship" speed="27.78" length="14.22" shape="2954.56,1859.78 2954.10,1845.50"/>
        <lane id=":1137920506_1_1" index="1" disallow="tram rail_urban rail rail_electric rail_fast ship" speed="27.78" length="14.22" shape="2957.76,1859.64 2957.30,1845.43"/>
        <lane id=":1137920506_1_2" index="2" disallow="tram rail_urban rail rail_electric rail_fast ship" speed="27.78" length="14.22" shape="2960.95,1859.50 2960.50,1845.36"/>
    </edge>
    <edge id=":1137920506_4" function="internal">
        <lane id=":1137920506_4_0" index="0" disallow="tram rail_urban rail rail_electric rail_fast ship" speed="6.51" length="8.97" shape="2948.67,1851.21 2951.09,1850.79 2952.80,1849.70 2953.80,1847.93 2954.10,1845.50"/>
    </edge>
    <edge id=":1137920506_5" function="internal">
        <lane id=":1137920506_5_0" index="0" disallow="tram rail_urban rail rail_electric rail_fast ship" speed="3.65" length="4.67" shape="2948.67,1851.21 2949.90,1851.98 2950.32,1852.76 2949.95,1853.58 2948.77,1854.41"/>
    </edge>
    <edge id=":1137920526_0" function="internal">
        <lane id=":1137920526_0_0" index="0" disallow="tram rail_urban rail rail_electric rail_fast ship" speed="6.07" length="8.02" shape="2739.74,1840.77 2737.62,1840.14 2736.25,1838.99 2735.61,1837.30 2735.73,1835.10"/>
    </edge>
    <edge id=":1137920526_1" function="internal">
        <lane id=":1137920526_1_0" index="0" disallow="tram rail_urban rail rail_electric rail_fast ship" speed="3.65" length="2.65" shape="2739.74,1840.77 2738.67,1839.81 2738.39,1838.96 2738.57,1838.70"/>
    </edge>
    <edge id=":1137920526_4" function="internal">
        <lane id=":1137920526_4_0" index="0" disallow="tram rail_urban rail rail_electric rail_fast ship" speed="3.65" length="2.03" shape="2738.57,1838.70 2738.90,1838.22 2740.21,1837.61"/>
    </edge>
    <edge id=":1137920526_2" function="internal">
        <lane id=":1137920526_2_0" index="0" disallow="tram rail_urban rail rail_electric rail_fast ship" speed="3.90" length="2.67" shape="2738.87,1835.71 2738.83,1836.45 2739.04,1837.01 2739.50,1837.40 2740.21,1837.61"/>
    </edge>
    <edge id=":1137920526_3" function="internal">
        <lane id=":1137920526_3_0" index="0" disallow="tram rail_urban rail rail_electric rail_fast ship" speed="3.65" length="2.08" shape="2738.87,1835.71 2737.85,1836.74 2737.24,1836.91"/>
    </edge>
    <edge id=":1137920526_5" function="internal">
        <lane id=":1137920526_5_0" index="0" disallow="tram rail_urban rail rail_electric rail_fast ship" speed="3.65" length="2.59" shape="2737.24,1836.91 2736.99,1836.97 2736.28,1836.43 2735.73,1835.10"/>
    </edge>
    <edge id=":1174817663_0" function="internal">
        <lane id=":1174817663_0_0" index="0" disallow="tram rail_urban rail rail_electric rail_fast ship" speed="6.51" length="9.03" shape="3322.16,2000.08 3321.41,1997.73 3320.08,1996.18 3318.18,1995.43 3315.70,1995.50"/>
    </edge>
    <edge id=":1174817663_1" function="internal">
        <lane id=":1174817663_1_0" index="0" disallow="tram rail_urban rail rail_electric rail_fast ship" speed="13.89" length="14.51" shape="3322.16,2000.08 3319.74,1985.77"/>
    </edge>
    <edge id=":1174817663_2" function="internal">
        <lane id=":1174817663_2_0" index="0" disallow="tram rail_urban rail rail_electric rail_fast ship" speed="8.13" length="5.94" shape="3322.16,2000.08 3322.06,1996.20 3322.81,1994.28"/>
    </edge>
    <edge id=":1174817663_3" function="internal">
        <lane id=":1174817663_3_0" index="0" disallow="tram rail_urban rail rail_electric rail_fast ship" speed="3.65" length="2.34" shape="3322.16,2000.08 3322.75,1998.76 3323.47,1998.23"/>
    </edge>
    <edge id=":1174817663_16" function="internal">
        <lane id=":1174817663_16_0" index="0" disallow="tram rail_urban rail rail_electric rail_fast ship" speed="8.13" length="8.38" shape="3322.81,1994.28 3323.23,1993.17 3325.67,1991.01 3329.38,1989.69"/>
    </edge>
    <edge id=":1174817663_17" function="internal">
        <lane id=":1174817663_17_0" index="0" disallow="tram rail_urban rail rail_electric rail_fast ship" speed="3.65" length="2.34" shape="3323.47,1998.23 3324.33,1998.49 3325.32,1999.54"/>
    </edge>
    <edge id=":1174817663_4" function="internal">
        <lane id=":1174817663_4_0" index="0" disallow="tram rail_urban rail rail_electric rail_fast ship" speed="6.66" length="9.28" shape="3330.02,1992.83 3327.60,1993.68 3326.02,1995.08 3325.26,1997.04 3325.32,1999.54"/>
    </edge>
    <edge id=":1174817663_5" function="internal">
        <lane id=":1174817663_5_0" index="0" disallow="tram rail_urban rail rail_electric rail_fast ship" speed="13.89" length="14.56" shape="3330.02,1992.83 3315.70,1995.50"/>
    </edge>
    <edge id=":1174817663_6" function="internal">
        <lane id=":1174817663_6_0" index="0" disallow="tram rail_urban rail rail_electric rail_fast ship" speed="7.94" length="14.33" shape="3330.02,1992.83 3326.08,1993.06 3323.05,1991.96 3320.94,1989.53 3319.74,1985.77"/>
    </edge>
    <edge id=":1174817663_7" function="internal">
        <lane id=":1174817663_7_0" index="0" disallow="tram rail_urban rail rail_electric rail_fast ship" speed="3.65" length="4.67" shape="3330.02,1992.83 3328.68,1992.29 3328.13,1991.58 3328.36,1990.72 3329.38,1989.69"/>
    </edge>
    <edge id=":1174817663_8" function="internal">
        <lane id=":1174817663_8_0" index="0" disallow="tram rail_urban rail rail_electric rail_fast ship" speed="6.43" length="9.03" shape="3322.90,1985.24 3323.66,1987.61 3324.99,1989.15 3326.89,1989.84 3329.38,1989.69"/>
    </edge>
    <edge id=":1174817663_9" function="internal">
        <lane id=":1174817663_9_0" index="0" disallow="tram rail_urban rail rail_electric rail_fast ship" speed="13.89" length="14.50" shape="3322.90,1985.24 3325.32,1999.54"/>
    </edge>
    <edge id=":1174817663_10" function="internal">
        <lane id=":1174817663_10_0" index="0" disallow="tram rail_urban rail rail_electric rail_fast ship" speed="8.03" length="5.98" shape="3322.90,1985.24 3323.00,1989.18 3322.27,1991.09"/>
    </edge>
    <edge id=":1174817663_11" function="internal">
        <lane id=":1174817663_11_0" index="0" disallow="tram rail_urban rail rail_electric rail_fast ship" speed="3.65" length="2.34" shape="3322.90,1985.24 3322.31,1986.56 3321.59,1987.08"/>
    </edge>
    <edge id=":1174817663_18" function="internal">
        <lane id=":1174817663_18_0" index="0" disallow="tram rail_urban rail rail_electric rail_fast ship" speed="8.03" length="8.30" shape="3322.27,1991.09 3321.84,1992.20 3319.40,1994.31 3315.70,1995.50"/>
    </edge>
    <edge id=":1174817663_19" function="internal">
        <lane id=":1174817663_19_0" index="0" disallow="tram rail_urban rail rail_electric rail_fast ship" speed="3.65" length="2.34" shape="3321.59,1987.08 3320.73,1986.82 3319.74,1985.77"/>
    </edge>
    <edge id=":1174817663_12" function="internal">
        <lane id=":1174817663_12_0" index="0" disallow="tram rail_urban rail rail_electric rail_fast ship" speed="6.54" length="9.13" shape="3315.17,1992.34 3317.52,1991.58 3319.07,1990.23 3319.81,1988.30 3319.74,1985.77"/>
    </edge>
    <edge id=":1174817663_13" function="internal">
        <lane id=":1174817663_13_0" index="0" disallow="tram rail_urban rail rail_electric rail_fast ship" speed="13.89" length="14.45" shape="3315.17,1992.34 3329.38,1989.69"/>
    </edge>
    <edge id=":1174817663_14" function="internal">
        <lane id=":1174817663_14_0" index="0" disallow="tram rail_urban rail rail_electric rail_fast ship" speed="8.01" length="14.19" shape="3315.17,1992.34 3319.05,1992.24 3322.04,1993.41 3324.13,1995.84 3325.32,1999.54"/>
    </edge>
    <edge id=":1174817663_15" function="internal">
        <lane id=":1174817663_15_0" index="0" disallow="tram rail_urban rail rail_electric rail_fast ship" speed="3.65" length="4.67" shape="3315.17,1992.34 3316.49,1992.93 3317.01,1993.65 3316.75,1994.51 3315.70,1995.50"/>
    </edge>
    <edge id=":1174817669_0" function="internal">
        <lane id=":1174817669_0_0" index="0" disallow="tram rail_urban rail rail_electric rail_fast ship" speed="6.50" length="9.03" shape="2982.74,2022.46 2980.31,2022.89 2978.60,2024.00 2977.61,2025.79 2977.35,2028.25"/>
    </edge>
    <edge id=":1174817669_1" function="internal">
        <lane id=":1174817669_1_0" index="0" disallow="tram rail_urban rail rail_electric rail_fast ship" speed="3.65" length="4.67" shape="2982.74,2022.46 2981.52,2021.70 2981.09,2020.92 2981.46,2020.10 2982.63,2019.26"/>
    </edge>
    <edge id=":1174817669_2" function="internal">
        <lane id=":1174817669_2_0" index="0" disallow="tram rail_urban rail rail_electric rail_fast ship" speed="6.57" length="9.08" shape="2976.70,2013.89 2977.19,2016.31 2978.34,2018.01 2980.15,2019.00 2982.63,2019.26"/>
    </edge>
    <edge id=":1174817669_3" function="internal">
        <lane id=":1174817669_3_0" index="0" disallow="tram rail_urban rail rail_electric rail_fast ship" speed="27.78" length="14.34" shape="2976.70,2013.89 2977.35,2028.25"/>
        <lane id=":1174817669_3_1" index="1" disallow="tram rail_urban rail rail_electric rail_fast ship" speed="27.78" length="14.34" shape="2973.51,2014.07 2974.15,2028.37"/>
    </edge>
    <edge id=":1174817670_0" function="internal">
        <lane id=":1174817670_0_0" index="0" disallow="tram rail_urban rail rail_electric rail_fast ship" speed="7.03" length="9.67" shape="3289.89,1849.80 3288.97,1847.53 3287.44,1846.00 3285.29,1845.20 3282.53,1845.13"/>
    </edge>
    <edge id=":1174817670_1" function="internal">
        <lane id=":1174817670_1_0" index="0" disallow="tram rail_urban rail rail_electric rail_fast ship" speed="13.89" length="14.42" shape="3289.89,1849.80 3286.77,1835.72"/>
    </edge>
    <edge id=":1174817670_2" function="internal">
        <lane id=":1174817670_2_0" index="0" disallow="tram rail_urban rail rail_electric rail_fast ship" speed="3.65" length="2.34" shape="3289.89,1849.80 3290.40,1848.45 3291.09,1847.88"/>
    </edge>
    <edge id=":1174817670_9" function="internal">
        <lane id=":1174817670_9_0" index="0" disallow="tram rail_urban rail rail_electric rail_fast ship" speed="3.65" length="2.34" shape="3291.09,1847.88 3291.96,1848.09 3293.01,1849.08"/>
    </edge>
    <edge id=":1174817670_3" function="internal">
        <lane id=":1174817670_3_0" index="0" disallow="tram rail_urban rail rail_electric rail_fast ship" speed="13.89" length="14.37" shape="3289.90,1835.05 3293.01,1849.08"/>
    </edge>
    <edge id=":1174817670_4" function="internal">
        <lane id=":1174817670_4_0" index="0" disallow="tram rail_urban rail rail_electric rail_fast ship" speed="7.81" length="5.89" shape="3289.90,1835.05 3290.17,1839.12 3289.54,1840.81"/>
    </edge>
    <edge id=":1174817670_5" function="internal">
        <lane id=":1174817670_5_0" index="0" disallow="tram rail_urban rail rail_electric rail_fast ship" speed="3.65" length="2.34" shape="3289.90,1835.05 3289.37,1836.39 3288.67,1836.95"/>
    </edge>
    <edge id=":1174817670_10" function="internal">
        <lane id=":1174817670_10_0" index="0" disallow="tram rail_urban rail rail_electric rail_fast ship" speed="7.81" length="8.75" shape="3289.54,1840.81 3289.04,1842.15 3286.49,1844.16 3282.53,1845.13"/>
    </edge>
    <edge id=":1174817670_11" function="internal">
        <lane id=":1174817670_11_0" index="0" disallow="tram rail_urban rail rail_electric rail_fast ship" speed="3.65" length="2.34" shape="3288.67,1836.95 3287.80,1836.72 3286.77,1835.72"/>
    </edge>
    <edge id=":1174817670_6" function="internal">
        <lane id=":1174817670_6_0" index="0" disallow="tram rail_urban rail rail_electric rail_fast ship" speed="6.27" length="9.04" shape="3282.22,1841.95 3284.66,1841.34 3286.24,1840.11 3286.94,1838.23 3286.77,1835.72"/>
    </edge>
    <edge id=":1174817670_7" function="internal">
        <lane id=":1174817670_7_0" index="0" disallow="tram rail_urban rail rail_electric rail_fast ship" speed="8.45" length="14.36" shape="3282.22,1841.95 3286.25,1842.06 3289.39,1843.29 3291.64,1845.63 3293.01,1849.08"/>
    </edge>
    <edge id=":1174817670_8" function="internal">
        <lane id=":1174817670_8_0" index="0" disallow="tram rail_urban rail rail_electric rail_fast ship" speed="3.65" length="4.67" shape="3282.22,1841.95 3283.49,1842.62 3283.96,1843.38 3283.64,1844.22 3282.53,1845.13"/>
    </edge>
    <edge id=":1174817673_0" function="internal">
        <lane id=":1174817673_0_0" index="0" disallow="tram rail_urban rail rail_electric rail_fast ship" speed="6.09" length="1.08" shape="3064.04,1831.77 3064.31,1830.73"/>
    </edge>
    <edge id=":1174817673_1" function="internal">
        <lane id=":1174817673_1_0" index="0" disallow="tram rail_urban rail rail_electric rail_fast ship" speed="3.65" length="1.12" shape="3064.04,1831.77 3064.63,1830.82"/>
    </edge>
    <edge id=":1174817673_4" function="internal">
        <lane id=":1174817673_4_0" index="0" disallow="tram rail_urban rail rail_electric rail_fast ship" speed="6.09" length="6.65" shape="3064.31,1830.73 3064.39,1830.42 3065.54,1829.42 3067.49,1828.78 3070.23,1828.48"/>
    </edge>
    <edge id=":1174817673_5" function="internal">
        <lane id=":1174817673_5_0" index="0" disallow="tram rail_urban rail rail_electric rail_fast ship" speed="3.65" length="3.55" shape="3064.63,1830.82 3064.80,1830.55 3065.59,1830.13 3066.40,1830.50 3067.23,1831.68"/>
    </edge>
    <edge id=":1174817673_2" function="internal">
        <lane id=":1174817673_2_0" index="0" disallow="tram rail_urban rail rail_electric rail_fast ship" speed="13.89" length="9.37" shape="3060.87,1828.74 3070.23,1828.48"/>
    </edge>
    <edge id=":1174817673_3" function="internal">
        <lane id=":1174817673_3_0" index="0" disallow="tram rail_urban rail rail_electric rail_fast ship" speed="6.09" length="7.73" shape="3060.87,1828.74 3063.62,1828.88 3065.60,1829.42 3066.80,1830.35 3067.23,1831.68"/>
    </edge>
    <edge id=":1194258146_0" function="internal">
        <lane id=":1194258146_0_0" index="0" disallow="tram rail_urban rail rail_electric rail_fast ship" speed="6.78" length="9.52" shape="2805.95,1989.30 2805.44,1986.75 2804.24,1984.93 2802.37,1983.85 2799.81,1983.51"/>
    </edge>
    <edge id=":1194258146_1" function="internal">
        <lane id=":1194258146_1_0" index="0" disallow="tram rail_urban rail rail_electric rail_fast ship" speed="13.89" length="14.71" shape="2805.95,1989.30 2805.18,1974.61"/>
    </edge>
    <edge id=":1194258146_2" function="internal">
        <lane id=":1194258146_2_0" index="0" disallow="tram rail_urban rail rail_electric rail_fast ship" speed="7.91" length="14.40" shape="2805.95,1989.30 2806.28,1985.34 2807.81,1982.50 2810.54,1980.78 2814.48,1980.19"/>
    </edge>
    <edge id=":1194258146_3" function="internal">
        <lane id=":1194258146_3_0" index="0" disallow="tram rail_urban rail rail_electric rail_fast ship" speed="3.65" length="4.67" shape="2805.95,1989.30 2806.68,1988.05 2807.46,1987.61 2808.28,1987.96 2809.15,1989.11"/>
    </edge>
    <edge id=":1194258146_4" function="internal">
        <lane id=":1194258146_4_0" index="0" disallow="tram rail_urban rail rail_electric rail_fast ship" speed="6.39" length="9.04" shape="2814.50,1983.39 2812.03,1983.76 2810.32,1984.84 2809.36,1986.62 2809.15,1989.11"/>
    </edge>
    <edge id=":1194258146_5" function="internal">
        <lane id=":1194258146_5_0" index="0" disallow="tram rail_urban rail rail_electric rail_fast ship" speed="13.89" length="14.68" shape="2814.50,1983.39 2799.81,1983.51"/>
    </edge>
    <edge id=":1194258146_6" function="internal">
        <lane id=":1194258146_6_0" index="0" disallow="tram rail_urban rail rail_electric rail_fast ship" speed="8.19" length="6.02" shape="2814.50,1983.39 2810.57,1982.87 2808.78,1981.84"/>
    </edge>
    <edge id=":1194258146_7" function="internal">
        <lane id=":1194258146_7_0" index="0" disallow="tram rail_urban rail rail_electric rail_fast ship" speed="3.65" length="2.34" shape="2814.50,1983.39 2813.29,1982.60 2812.89,1981.80"/>
    </edge>
    <edge id=":1194258146_16" function="internal">
        <lane id=":1194258146_16_0" index="0" disallow="tram rail_urban rail rail_electric rail_fast ship" speed="8.19" length="8.46" shape="2808.78,1981.84 2807.71,1981.22 2805.92,1978.47 2805.18,1974.61"/>
    </edge>
    <edge id=":1194258146_17" function="internal">
        <lane id=":1194258146_17_0" index="0" disallow="tram rail_urban rail rail_electric rail_fast ship" speed="3.65" length="2.34" shape="2812.89,1981.80 2813.28,1981.00 2814.48,1980.19"/>
    </edge>
    <edge id=":1194258146_8" function="internal">
        <lane id=":1194258146_8_0" index="0" disallow="tram rail_urban rail rail_electric rail_fast ship" speed="6.74" length="9.46" shape="2808.38,1974.46 2808.86,1976.98 2810.03,1978.78 2811.91,1979.85 2814.48,1980.19"/>
    </edge>
    <edge id=":1194258146_9" function="internal">
        <lane id=":1194258146_9_0" index="0" disallow="tram rail_urban rail rail_electric rail_fast ship" speed="13.89" length="14.67" shape="2808.38,1974.46 2809.15,1989.11"/>
    </edge>
    <edge id=":1194258146_10" function="internal">
        <lane id=":1194258146_10_0" index="0" disallow="tram rail_urban rail rail_electric rail_fast ship" speed="7.94" length="14.33" shape="2808.38,1974.46 2808.00,1978.39 2806.44,1981.21 2803.71,1982.91 2799.81,1983.51"/>
    </edge>
    <edge id=":1194258146_11" function="internal">
        <lane id=":1194258146_11_0" index="0" disallow="tram rail_urban rail rail_electric rail_fast ship" speed="3.65" length="4.67" shape="2808.38,1974.46 2807.64,1975.70 2806.85,1976.13 2806.04,1975.77 2805.18,1974.61"/>
    </edge>
    <edge id=":1194258146_12" function="internal">
        <lane id=":1194258146_12_0" index="0" disallow="tram rail_urban rail rail_electric rail_fast ship" speed="6.43" length="9.03" shape="2799.78,1980.31 2802.24,1979.93 2803.96,1978.86 2804.94,1977.08 2805.18,1974.61"/>
    </edge>
    <edge id=":1194258146_13" function="internal">
        <lane id=":1194258146_13_0" index="0" disallow="tram rail_urban rail rail_electric rail_fast ship" speed="13.89" length="14.70" shape="2799.78,1980.31 2814.48,1980.19"/>
    </edge>
    <edge id=":1194258146_14" function="internal">
        <lane id=":1194258146_14_0" index="0" disallow="tram rail_urban rail rail_electric rail_fast ship" speed="8.23" length="6.02" shape="2799.78,1980.31 2803.68,1980.83 2805.49,1981.87"/>
    </edge>
    <edge id=":1194258146_15" function="internal">
        <lane id=":1194258146_15_0" index="0" disallow="tram rail_urban rail rail_electric rail_fast ship" speed="3.65" length="2.34" shape="2799.78,1980.31 2800.99,1981.10 2801.40,1981.90"/>
    </edge>
    <edge id=":1194258146_18" function="internal">
        <lane id=":1194258146_18_0" index="0" disallow="tram rail_urban rail rail_electric rail_fast ship" speed="8.23" length="8.48" shape="2805.49,1981.87 2806.54,1982.47 2808.36,1985.23 2809.15,1989.11"/>
    </edge>
    <edge id=":1194258146_19" function="internal">
        <lane id=":1194258146_19_0" index="0" disallow="tram rail_urban rail rail_electric rail_fast ship" speed="3.65" length="2.34" shape="2801.40,1981.90 2801.00,1982.70 2799.81,1983.51"/>
    </edge>
    <edge id=":1194258168_0" function="internal">
        <lane id=":1194258168_0_0" index="0" disallow="tram rail_urban rail rail_electric rail_fast ship" speed="3.65" length="4.67" shape="2709.94,1981.93 2708.78,1981.07 2708.42,1980.25 2708.86,1979.47 2710.10,1978.73"/>
    </edge>
    <edge id=":1194258175_0" function="internal">
        <lane id=":1194258175_0_0" index="0" disallow="tram rail_urban rail rail_electric rail_fast ship" speed="7.62" length="10.30" shape="2798.90,1856.05 2798.26,1853.08 2797.07,1850.85 2795.31,1849.36 2793.00,1848.61"/>
    </edge>
    <edge id=":1194258175_1" function="internal">
        <lane id=":1194258175_1_0" index="0" disallow="tram rail_urban rail rail_electric rail_fast ship" speed="7.68" length="15.05" shape="2798.90,1856.05 2799.05,1851.79 2800.57,1848.90 2803.46,1847.36 2807.71,1847.19"/>
    </edge>
    <edge id=":1194258175_2" function="internal">
        <lane id=":1194258175_2_0" index="0" disallow="tram rail_urban rail rail_electric rail_fast ship" speed="3.65" length="4.67" shape="2798.90,1856.05 2799.57,1854.77 2800.32,1854.28 2801.16,1854.60 2802.08,1855.70"/>
    </edge>
    <edge id=":1194258175_3" function="internal">
        <lane id=":1194258175_3_0" index="0" disallow="tram rail_urban rail rail_electric rail_fast ship" speed="6.10" length="9.06" shape="2807.39,1850.37 2804.83,1850.48 2803.09,1851.40 2802.17,1853.14 2802.08,1855.70"/>
    </edge>
    <edge id=":1194258175_4" function="internal">
        <lane id=":1194258175_4_0" index="0" disallow="tram rail_urban rail rail_electric rail_fast ship" speed="13.89" length="14.50" shape="2807.39,1850.37 2793.00,1848.61"/>
    </edge>
    <edge id=":1194258175_5" function="internal">
        <lane id=":1194258175_5_0" index="0" disallow="tram rail_urban rail rail_electric rail_fast ship" speed="3.65" length="2.34" shape="2807.39,1850.37 2806.27,1849.45 2805.96,1848.62"/>
    </edge>
    <edge id=":1194258175_9" function="internal">
        <lane id=":1194258175_9_0" index="0" disallow="tram rail_urban rail rail_electric rail_fast ship" speed="3.65" length="2.34" shape="2805.96,1848.62 2806.44,1847.86 2807.71,1847.19"/>
    </edge>
    <edge id=":1194258175_6" function="internal">
        <lane id=":1194258175_6_0" index="0" disallow="tram rail_urban rail rail_electric rail_fast ship" speed="13.89" length="14.35" shape="2793.46,1845.44 2807.71,1847.19"/>
    </edge>
    <edge id=":1194258175_7" function="internal">
        <lane id=":1194258175_7_0" index="0" disallow="tram rail_urban rail rail_electric rail_fast ship" speed="8.96" length="5.38" shape="2793.46,1845.44 2796.87,1846.51 2798.28,1847.65"/>
    </edge>
    <edge id=":1194258175_8" function="internal">
        <lane id=":1194258175_8_0" index="0" disallow="tram rail_urban rail rail_electric rail_fast ship" speed="3.65" length="2.34" shape="2793.46,1845.44 2794.54,1846.41 2794.81,1847.26"/>
    </edge>
    <edge id=":1194258175_10" function="internal">
        <lane id=":1194258175_10_0" index="0" disallow="tram rail_urban rail rail_electric rail_fast ship" speed="8.96" length="9.17" shape="2798.28,1847.65 2799.44,1848.57 2801.17,1851.64 2802.08,1855.70"/>
    </edge>
    <edge id=":1194258175_11" function="internal">
        <lane id=":1194258175_11_0" index="0" disallow="tram rail_urban rail rail_electric rail_fast ship" speed="3.65" length="2.34" shape="2794.81,1847.26 2794.30,1847.99 2793.00,1848.61"/>
    </edge>
    <edge id=":1194258199_0" function="internal">
        <lane id=":1194258199_0_0" index="0" disallow="tram rail_urban rail rail_electric rail_fast ship" speed="5.84" length="8.75" shape="2814.13,2072.20 2813.83,2074.15 2812.64,2075.30 2810.56,2075.63 2807.58,2075.16"/>
    </edge>
    <edge id=":1194258199_1" function="internal">