<?xml version="1.0" encoding="UTF-8"?>

<!-- generated on 2022-09-13 12:32:19 by Eclipse SUMO netedit Version 1.10.0
<configuration xmlns:xsi="http://www.w3.org/2001/XMLSchema-instance" xsi:noNamespaceSchemaLocation="http://sumo.dlr.de/xsd/netconvertConfiguration.xsd">

    <input>
        <sumo-net-file value="large.net.xml"/>
    </input>

    <output>
        <output-file value="large.net.xml"/>
        <output.street-names value="true"/>
    </output>

    <processing>
        <geometry.min-radius.fix.railways value="false"/>
        <geometry.max-grade.fix value="false"/>
        <offset.disable-normalization value="true"/>
        <lefthand value="false"/>
    </processing>

    <junctions>
        <no-turnarounds value="true"/>
        <junctions.corner-detail value="5"/>
        <junctions.limit-turn-speed value="5.5"/>
        <rectangular-lane-cut value="false"/>
    </junctions>

    <pedestrian>
        <walkingareas value="false"/>
    </pedestrian>

    <report>
        <aggregate-warnings value="5"/>
    </report>

</configuration>
-->

<net version="1.9" junctionCornerDetail="5" limitTurnSpeed="5.50" xmlns:xsi="http://www.w3.org/2001/XMLSchema-instance" xsi:noNamespaceSchemaLocation="http://sumo.dlr.de/xsd/net_file.xsd">

    <location netOffset="-314340.44,-4666326.23" convBoundary="694.64,858.76,1369.27,1516.20" origBoundary="24.753470,42.127385,24.785510,42.143020" projParameter="+proj=utm +zone=35 +ellps=WGS84 +datum=WGS84 +units=m +no_defs"/>

    <type id="highway.bridleway" priority="1" numLanes="1" speed="2.78" allow="pedestrian" oneway="1" width="2.00"/>
    <type id="highway.bus_guideway" priority="1" numLanes="1" speed="27.78" allow="bus" oneway="1"/>
    <type id="highway.cycleway" priority="1" numLanes="1" speed="8.33" allow="bicycle" oneway="1" width="1.00"/>
    <type id="highway.footway" priority="1" numLanes="1" speed="2.78" allow="pedestrian" oneway="1" width="2.00"/>
    <type id="highway.ford" priority="1" numLanes="1" speed="2.78" allow="army" oneway="1"/>
    <type id="highway.living_street" priority="2" numLanes="1" speed="2.78" disallow="tram rail_urban rail rail_electric rail_fast ship" oneway="1"/>
    <type id="highway.motorway" priority="14" numLanes="2" speed="39.44" allow="private emergency authority army vip passenger hov taxi bus coach delivery truck trailer motorcycle evehicle custom1 custom2" oneway="1"/>
    <type id="highway.motorway_link" priority="9" numLanes="1" speed="22.22" allow="private emergency authority army vip passenger hov taxi bus coach delivery truck trailer motorcycle evehicle custom1 custom2" oneway="1"/>
    <type id="highway.path" priority="1" numLanes="1" speed="2.78" allow="pedestrian bicycle" oneway="1" width="2.00"/>
    <type id="highway.pedestrian" priority="1" numLanes="1" speed="2.78" allow="pedestrian" oneway="1" width="2.00"/>
    <type id="highway.primary" priority="12" numLanes="2" speed="27.78" disallow="tram rail_urban rail rail_electric rail_fast ship" oneway="1"/>
    <type id="highway.primary_link" priority="7" numLanes="1" speed="22.22" disallow="tram rail_urban rail rail_electric rail_fast ship" oneway="1"/>
    <type id="highway.raceway" priority="15" numLanes="2" speed="83.33" allow="vip" oneway="1"/>
    <type id="highway.residential" priority="3" numLanes="1" speed="13.89" disallow="tram rail_urban rail rail_electric rail_fast ship" oneway="1"/>
    <type id="highway.secondary" priority="11" numLanes="1" speed="27.78" disallow="tram rail_urban rail rail_electric rail_fast ship" oneway="1"/>
    <type id="highway.secondary_link" priority="6" numLanes="1" speed="22.22" disallow="tram rail_urban rail rail_electric rail_fast ship" oneway="1"/>
    <type id="highway.service" priority="1" numLanes="1" speed="5.56" allow="pedestrian delivery bicycle" oneway="1"/>
    <type id="highway.stairs" priority="1" numLanes="1" speed="1.39" allow="pedestrian" oneway="1" width="2.00"/>
    <type id="highway.step" priority="1" numLanes="1" speed="1.39" allow="pedestrian" oneway="1" width="2.00"/>
    <type id="highway.steps" priority="1" numLanes="1" speed="1.39" allow="pedestrian" oneway="1" width="2.00"/>
    <type id="highway.tertiary" priority="10" numLanes="1" speed="22.22" disallow="tram rail_urban rail rail_electric rail_fast ship" oneway="1"/>
    <type id="highway.tertiary_link" priority="5" numLanes="1" speed="22.22" disallow="tram rail_urban rail rail_electric rail_fast ship" oneway="1"/>
    <type id="highway.track" priority="1" numLanes="1" speed="5.56" allow="pedestrian motorcycle moped bicycle" oneway="1"/>
    <type id="highway.trunk" priority="13" numLanes="2" speed="27.78" disallow="pedestrian bicycle tram rail_urban rail rail_electric rail_fast ship" oneway="1"/>
    <type id="highway.trunk_link" priority="8" numLanes="1" speed="22.22" disallow="pedestrian bicycle tram rail_urban rail rail_electric rail_fast ship" oneway="1"/>
    <type id="highway.unclassified" priority="4" numLanes="1" speed="13.89" disallow="tram rail_urban rail rail_electric rail_fast ship" oneway="1"/>
    <type id="highway.unsurfaced" priority="1" numLanes="1" speed="8.33" disallow="tram rail_urban rail rail_electric rail_fast ship" oneway="1"/>
    <type id="railway.highspeed" priority="21" numLanes="1" speed="69.44" allow="rail_fast" oneway="1"/>
    <type id="railway.light_rail" priority="19" numLanes="1" speed="27.78" allow="rail_urban" oneway="1"/>
    <type id="railway.preserved" priority="16" numLanes="1" speed="27.78" allow="rail" oneway="1"/>
    <type id="railway.rail" priority="20" numLanes="1" speed="44.44" allow="rail" oneway="1"/>
    <type id="railway.subway" priority="18" numLanes="1" speed="27.78" allow="rail_urban" oneway="1"/>
    <type id="railway.tram" priority="17" numLanes="1" speed="13.89" allow="tram" oneway="1"/>

    <edge id=":1698373733_0" function="internal">
        <lane id=":1698373733_0_0" index="0" disallow="tram rail_urban rail rail_electric rail_fast ship" speed="3.65" length="4.67" shape="1285.68,1172.28 1284.48,1173.09 1283.59,1173.15 1283.00,1172.47 1282.72,1171.06"/>
    </edge>
    <edge id=":4653306326_0" function="internal">
        <lane id=":4653306326_0_0" index="0" disallow="tram rail_urban rail rail_electric rail_fast ship" speed="3.65" length="4.67" shape="1327.68,1061.65 1328.86,1060.82 1329.75,1060.74 1330.35,1061.40 1330.66,1062.81"/>
    </edge>
    <edge id=":817484976_0" function="internal">
        <lane id=":817484976_0_0" index="0" disallow="tram rail_urban rail rail_electric rail_fast ship" speed="25.00" length="13.28" shape="792.19,922.86 789.58,920.88 787.30,919.26 784.60,917.81 780.73,916.33"/>
    </edge>
    <edge id=":817484976_1" function="internal">
        <lane id=":817484976_1_0" index="0" disallow="tram rail_urban rail rail_electric rail_fast ship" speed="27.78" length="13.70" shape="794.21,918.87 790.26,917.91 787.46,917.64 784.66,917.35 780.73,916.33"/>
        <lane id=":817484976_1_1" index="1" disallow="tram rail_urban rail rail_electric rail_fast ship" speed="27.78" length="13.70" shape="795.16,915.82 791.23,914.87 788.44,914.60 785.66,914.30 781.74,913.29"/>
        <lane id=":817484976_1_2" index="2" disallow="tram rail_urban rail rail_electric rail_fast ship" speed="27.78" length="13.70" shape="796.12,912.77 792.20,911.82 789.42,911.55 786.65,911.26 782.75,910.25"/>
    </edge>
    <edge id=":817497123_0" function="internal">
        <lane id=":817497123_0_0" index="0" disallow="tram rail_urban rail rail_electric rail_fast ship" speed="16.82" length="11.19" shape="774.38,1039.69 775.12,1036.43 775.22,1034.04 774.85,1031.73 774.18,1028.69"/>
    </edge>
    <edge id=":817497123_1" function="internal">
        <lane id=":817497123_1_0" index="0" disallow="tram rail_urban rail rail_electric rail_fast ship" speed="27.78" length="11.72" shape="777.45,1040.57 778.17,1037.16 778.31,1034.75 778.48,1032.34 779.30,1028.97"/>
        <lane id=":817497123_1_1" index="1" disallow="tram rail_urban rail rail_electric rail_fast ship" speed="27.78" length="11.72" shape="777.45,1040.57 778.64,1037.32 779.83,1035.24 781.06,1033.16 782.35,1029.94"/>
        <lane id=":817497123_1_2" index="2" disallow="tram rail_urban rail rail_electric rail_fast ship" speed="27.78" length="11.72" shape="780.53,1041.45 781.71,1038.23 782.90,1036.16 784.11,1034.11 785.40,1030.92"/>
    </edge>
    <edge id=":817497162_0" function="internal">
        <lane id=":817497162_0_0" index="0" disallow="tram rail_urban rail rail_electric rail_fast ship" speed="15.88" length="18.12" shape="763.01,1004.87 759.98,1002.56 756.60,1000.36 752.33,998.77 746.63,998.31"/>
    </edge>
    <edge id=":817497162_1" function="internal">
        <lane id=":817497162_1_0" index="0" disallow="tram rail_urban rail rail_electric rail_fast ship" speed="27.78" length="18.06" shape="764.49,999.65 759.18,999.21 755.56,998.68 751.93,998.30 746.63,998.31"/>
        <lane id=":817497162_1_1" index="1" disallow="tram rail_urban rail rail_electric rail_fast ship" speed="27.78" length="18.06" shape="764.59,996.45 759.22,996.00 755.54,995.48 751.87,995.10 746.49,995.12"/>
    </edge>
    <edge id=":817497162_3" function="internal">
        <lane id=":817497162_3_0" index="0" disallow="tram rail_urban rail rail_electric rail_fast ship" speed="27.78" length="18.52" shape="746.22,988.72 751.74,988.66 755.52,988.95 759.29,989.36 764.82,989.70"/>
        <lane id=":817497162_3_1" index="1" disallow="tram rail_urban rail rail_electric rail_fast ship" speed="27.78" length="18.52" shape="746.36,991.92 751.81,991.86 755.53,992.15 759.26,992.56 764.71,992.90"/>
    </edge>
    <edge id=":cluster_575651336_948231317_0" function="internal">
        <lane id=":cluster_575651336_948231317_0_0" index="0" disallow="tram rail_urban rail rail_electric rail_fast ship" speed="25.00" length="14.14" shape="799.15,966.88 800.90,962.78 801.85,959.57 802.37,956.63 802.83,953.31"/>
    </edge>
    <edge id=":cluster_575651336_948231317_1" function="internal">
        <lane id=":cluster_575651336_948231317_1_0" index="0" disallow="tram rail_urban rail rail_electric rail_fast ship" speed="27.78" length="14.68" shape="802.04,968.26 803.60,964.24 804.20,961.32 804.78,958.38 806.27,954.33"/>
        <lane id=":cluster_575651336_948231317_1_1" index="1" disallow="tram rail_urban rail rail_electric rail_fast ship" speed="27.78" length="14.68" shape="804.92,969.64 806.50,965.60 807.11,962.66 807.69,959.71 809.18,955.64"/>
        <lane id=":cluster_575651336_948231317_1_2" index="2" disallow="tram rail_urban rail rail_electric rail_fast ship" speed="27.78" length="14.68" shape="807.81,971.02 809.39,966.96 810.01,964.01 810.60,961.05 812.10,956.96"/>
    </edge>
    <edge id=":cluster_817485017_817497129_0" function="internal">
        <lane id=":cluster_817485017_817497129_0_0" index="0" disallow="tram rail_urban rail rail_electric rail_fast ship" speed="27.78" length="19.71" shape="814.73,995.15 812.28,1000.31 809.78,1003.47 807.37,1006.67 805.20,1011.91"/>
        <lane id=":cluster_817485017_817497129_0_1" index="1" disallow="tram rail_urban rail rail_electric rail_fast ship" speed="27.78" length="19.71" shape="811.74,993.98 809.27,999.23 806.74,1002.45 804.32,1005.70 802.12,1011.03"/>
        <lane id=":cluster_817485017_817497129_0_2" index="2" disallow="tram rail_urban rail rail_electric rail_fast ship" speed="27.78" length="19.71" shape="808.76,992.82 806.26,998.14 803.71,1001.42 801.26,1004.73 799.05,1010.15"/>
    </edge>
    <edge id=":cluster_817485017_817497129_3" function="internal">
        <lane id=":cluster_817485017_817497129_3_0" index="0" disallow="tram rail_urban rail rail_electric rail_fast ship" speed="11.81" length="25.14" shape="805.78,991.65 803.45,994.51 798.78,996.40 791.77,997.34 782.43,997.31"/>
    </edge>
    <edge id=":cluster_817485017_817497129_4" function="internal">
        <lane id=":cluster_817485017_817497129_4_0" index="0" disallow="tram rail_urban rail rail_electric rail_fast ship" speed="7.70" length="9.68" shape="782.76,990.29 785.46,990.07 787.66,989.24 789.35,987.78 790.54,985.70"/>
        <lane id=":cluster_817485017_817497129_4_1" index="1" disallow="tram rail_urban rail rail_electric rail_fast ship" speed="8.47" length="11.88" shape="782.76,990.29 786.92,990.19 790.10,989.58 792.30,988.48 793.52,986.86"/>
        <lane id=":cluster_817485017_817497129_4_2" index="2" disallow="tram rail_urban rail rail_electric rail_fast ship" speed="9.25" length="14.30" shape="782.76,990.29 788.38,990.30 792.54,989.93 795.25,989.17 796.50,988.03"/>
    </edge>
    <edge id=":cluster_817485017_817497129_7" function="internal">
        <lane id=":cluster_817485017_817497129_7_0" index="0" disallow="tram rail_urban rail rail_electric rail_fast ship" speed="10.87" length="32.20" shape="782.61,993.48 792.37,994.46 799.33,997.20 802.81,1002.47 802.12,1011.03"/>
        <lane id=":cluster_817485017_817497129_7_1" index="1" disallow="tram rail_urban rail rail_electric rail_fast ship" speed="10.30" length="28.73" shape="782.61,993.48 791.17,994.51 797.05,997.29 799.82,1002.33 799.05,1010.15"/>
    </edge>
    <edge id=":cluster_817485017_817497129_9" function="internal">
        <lane id=":cluster_817485017_817497129_9_0" index="0" disallow="tram rail_urban rail rail_electric rail_fast ship" speed="27.78" length="20.60" shape="786.50,1006.55 793.52,986.86"/>
        <lane id=":cluster_817485017_817497129_9_1" index="1" disallow="tram rail_urban rail rail_electric rail_fast ship" speed="27.78" length="20.60" shape="789.58,1007.43 796.50,988.03"/>
        <lane id=":cluster_817485017_817497129_9_2" index="2" disallow="tram rail_urban rail rail_electric rail_fast ship" speed="27.78" length="20.60" shape="792.66,1008.31 799.48,989.19"/>
    </edge>
    <edge id=":cluster_829171827_890670350_0" function="internal">
        <lane id=":cluster_829171827_890670350_0_0" index="0" disallow="tram rail_urban rail rail_electric rail_fast ship" speed="7.54" length="12.31" shape="1313.77,1129.19 1309.81,1128.00 1306.67,1127.88 1304.36,1128.84 1302.88,1130.89"/>
    </edge>
    <edge id=":cluster_829171827_890670350_1" function="internal">
        <lane id=":cluster_829171827_890670350_1_0" index="0" disallow="tram rail_urban rail rail_electric rail_fast ship" speed="27.78" length="18.14" shape="1313.77,1129.19 1296.93,1122.30"/>
        <lane id=":cluster_829171827_890670350_1_1" index="1" disallow="tram rail_urban rail rail_electric rail_fast ship" speed="27.78" length="18.14" shape="1314.99,1126.23 1298.20,1119.36"/>
        <lane id=":cluster_829171827_890670350_1_2" index="2" disallow="tram rail_urban rail rail_electric rail_fast ship" speed="27.78" length="18.14" shape="1316.20,1123.27 1299.46,1116.42"/>
    </edge>
    <edge id=":cluster_829171827_890670350_4" function="internal">
        <lane id=":cluster_829171827_890670350_4_0" index="0" disallow="tram rail_urban rail rail_electric rail_fast ship" speed="10.16" length="8.82" shape="1316.20,1123.27 1311.79,1120.37 1310.15,1117.23"/>
    </edge>
    <edge id=":cluster_829171827_890670350_5" function="internal">
        <lane id=":cluster_829171827_890670350_5_0" index="0" disallow="tram rail_urban rail rail_electric rail_fast ship" speed="4.24" length="4.48" shape="1316.20,1123.27 1314.98,1121.45 1314.88,1120.10 1315.58,1119.49"/>
    </edge>
    <edge id=":cluster_829171827_890670350_19" function="internal">
        <lane id=":cluster_829171827_890670350_19_0" index="0" disallow="tram rail_urban rail rail_electric rail_fast ship" speed="10.16" length="14.63" shape="1310.15,1117.23 1309.53,1116.04 1309.42,1110.26 1311.45,1103.04"/>
    </edge>
    <edge id=":cluster_829171827_890670350_20" function="internal">
        <lane id=":cluster_829171827_890670350_20_0" index="0" disallow="tram rail_urban rail rail_electric rail_fast ship" speed="4.24" length="2.61" shape="1315.58,1119.49 1315.90,1119.21 1318.04,1118.78"/>
    </edge>
    <edge id=":cluster_829171827_890670350_6" function="internal">
        <lane id=":cluster_829171827_890670350_6_0" index="0" disallow="tram rail_urban rail rail_electric rail_fast ship" speed="6.59" length="9.18" shape="1317.41,1105.38 1316.81,1107.86 1317.12,1109.93 1318.34,1111.60 1320.47,1112.86"/>
    </edge>
    <edge id=":cluster_829171827_890670350_7" function="internal">
        <lane id=":cluster_829171827_890670350_7_0" index="0" disallow="tram rail_urban rail rail_electric rail_fast ship" speed="22.22" length="29.39" shape="1317.41,1105.38 1313.87,1112.64 1309.49,1119.89 1305.44,1126.26 1302.88,1130.89"/>
    </edge>
    <edge id=":cluster_829171827_890670350_8" function="internal">
        <lane id=":cluster_829171827_890670350_8_0" index="0" disallow="tram rail_urban rail rail_electric rail_fast ship" speed="9.65" length="21.65" shape="1314.43,1104.21 1311.15,1110.96 1307.56,1115.24 1303.66,1117.06 1299.46,1116.42"/>
    </edge>
    <edge id=":cluster_829171827_890670350_9" function="internal">
        <lane id=":cluster_829171827_890670350_9_0" index="0" disallow="tram rail_urban rail rail_electric rail_fast ship" speed="6.52" length="9.26" shape="1303.94,1105.99 1306.45,1106.67 1308.54,1106.41 1310.21,1105.20 1311.45,1103.04"/>
    </edge>
    <edge id=":cluster_829171827_890670350_10" function="internal">
        <lane id=":cluster_829171827_890670350_10_0" index="0" disallow="tram rail_urban rail rail_electric rail_fast ship" speed="27.78" length="17.95" shape="1303.94,1105.99 1320.47,1112.86"/>
        <lane id=":cluster_829171827_890670350_10_1" index="1" disallow="tram rail_urban rail rail_electric rail_fast ship" speed="27.78" length="17.95" shape="1302.67,1108.93 1319.25,1115.82"/>
        <lane id=":cluster_829171827_890670350_10_2" index="2" disallow="tram rail_urban rail rail_electric rail_fast ship" speed="27.78" length="17.95" shape="1301.41,1111.87 1318.04,1118.78"/>
    </edge>
    <edge id=":cluster_829171827_890670350_13" function="internal">
        <lane id=":cluster_829171827_890670350_13_0" index="0" disallow="tram rail_urban rail rail_electric rail_fast ship" speed="9.67" length="6.86" shape="1301.41,1111.87 1304.49,1114.32 1305.38,1117.11"/>
    </edge>
    <edge id=":cluster_829171827_890670350_14" function="internal">
        <lane id=":cluster_829171827_890670350_14_0" index="0" disallow="tram rail_urban rail rail_electric rail_fast ship" speed="4.27" length="4.55" shape="1301.41,1111.87 1302.63,1113.74 1302.71,1115.12 1301.99,1115.73"/>
    </edge>
    <edge id=":cluster_829171827_890670350_21" function="internal">
        <lane id=":cluster_829171827_890670350_21_0" index="0" disallow="tram rail_urban rail rail_electric rail_fast ship" speed="9.67" length="14.24" shape="1305.38,1117.11 1305.76,1118.31 1305.22,1123.83 1302.88,1130.89"/>
    </edge>
    <edge id=":cluster_829171827_890670350_22" function="internal">
        <lane id=":cluster_829171827_890670350_22_0" index="0" disallow="tram rail_urban rail rail_electric rail_fast ship" speed="4.27" length="2.68" shape="1301.99,1115.73 1301.65,1116.02 1299.46,1116.42"/>
    </edge>
    <edge id=":cluster_829171827_890670350_15" function="internal">
        <lane id=":cluster_829171827_890670350_15_0" index="0" disallow="tram rail_urban rail rail_electric rail_fast ship" speed="6.53" length="9.03" shape="1299.92,1129.66 1300.54,1127.27 1300.24,1125.24 1299.04,1123.59 1296.93,1122.30"/>
    </edge>
    <edge id=":cluster_829171827_890670350_16" function="internal">
        <lane id=":cluster_829171827_890670350_16_0" index="0" disallow="tram rail_urban rail rail_electric rail_fast ship" speed="22.22" length="29.01" shape="1299.92,1129.66 1311.45,1103.04"/>
    </edge>
    <edge id=":cluster_829171827_890670350_17" function="internal">
        <lane id=":cluster_829171827_890670350_17_0" index="0" disallow="tram rail_urban rail rail_electric rail_fast ship" speed="10.26" length="23.92" shape="1299.92,1129.66 1303.49,1123.11 1307.70,1119.12 1312.55,1117.67 1318.04,1118.78"/>
    </edge>
    <edge id=":cluster_829171827_890670350_18" function="internal">
        <lane id=":cluster_829171827_890670350_18_0" index="0" disallow="tram rail_urban rail rail_electric rail_fast ship" speed="3.65" length="4.67" shape="1299.92,1129.66 1301.12,1128.86 1302.01,1128.79 1302.60,1129.47 1302.88,1130.89"/>
    </edge>
    <edge id=":cluster_890670257_cluster_161411759_cluster_161411759_817484963_890670257_948231317_0" function="internal">
        <lane id=":cluster_890670257_cluster_161411759_cluster_161411759_817484963_890670257_948231317_0_0" index="0" disallow="tram rail_urban rail rail_electric rail_fast ship" speed="6.53" length="9.08" shape="842.99,936.85 840.55,936.30 838.52,936.65 836.91,937.91 835.70,940.07"/>
    </edge>
    <edge id=":cluster_890670257_cluster_161411759_cluster_161411759_817484963_890670257_948231317_1" function="internal">
        <lane id=":cluster_890670257_cluster_161411759_cluster_161411759_817484963_890670257_948231317_1_0" index="0" disallow="tram rail_urban rail rail_electric rail_fast ship" speed="27.78" length="31.46" shape="842.99,936.85 813.70,925.61"/>
        <lane id=":cluster_890670257_cluster_161411759_cluster_161411759_817484963_890670257_948231317_1_1" index="1" disallow="tram rail_urban rail rail_electric rail_fast ship" speed="27.78" length="31.46" shape="844.24,933.90 814.86,922.63"/>
        <lane id=":cluster_890670257_cluster_161411759_cluster_161411759_817484963_890670257_948231317_1_2" index="2" disallow="tram rail_urban rail rail_electric rail_fast ship" speed="27.78" length="31.46" shape="845.48,930.95 816.02,919.65"/>
    </edge>
    <edge id=":cluster_890670257_cluster_161411759_cluster_161411759_817484963_890670257_948231317_4" function="internal">
        <lane id=":cluster_890670257_cluster_161411759_cluster_161411759_817484963_890670257_948231317_4_0" index="0" disallow="tram rail_urban rail rail_electric rail_fast ship" speed="11.44" length="31.31" shape="846.73,928.00 839.52,923.90 835.54,918.30 834.81,911.18 837.31,902.54"/>
    </edge>
    <edge id=":cluster_890670257_cluster_161411759_cluster_161411759_817484963_890670257_948231317_5" function="internal">
        <lane id=":cluster_890670257_cluster_161411759_cluster_161411759_817484963_890670257_948231317_5_0" index="0" disallow="tram rail_urban rail rail_electric rail_fast ship" speed="6.46" length="9.21" shape="849.13,907.73 848.41,910.09 848.68,912.11 849.93,913.79 852.18,915.12"/>
    </edge>
    <edge id=":cluster_890670257_cluster_161411759_cluster_161411759_817484963_890670257_948231317_6" function="internal">
        <lane id=":cluster_890670257_cluster_161411759_cluster_161411759_817484963_890670257_948231317_6_0" index="0" disallow="tram rail_urban rail rail_electric rail_fast ship" speed="27.78" length="35.26" shape="849.13,907.73 835.70,940.07"/>
        <lane id=":cluster_890670257_cluster_161411759_cluster_161411759_817484963_890670257_948231317_6_1" index="1" disallow="tram rail_urban rail rail_electric rail_fast ship" speed="27.78" length="35.26" shape="846.20,906.44 832.72,938.93"/>
        <lane id=":cluster_890670257_cluster_161411759_cluster_161411759_817484963_890670257_948231317_6_2" index="2" disallow="tram rail_urban rail rail_electric rail_fast ship" speed="27.78" length="35.26" shape="843.27,905.16 829.73,937.78"/>
        <lane id=":cluster_890670257_cluster_161411759_cluster_161411759_817484963_890670257_948231317_6_3" index="3" disallow="tram rail_urban rail rail_electric rail_fast ship" speed="27.78" length="35.26" shape="843.27,905.16 826.74,936.63"/>
    </edge>
    <edge id=":cluster_890670257_cluster_161411759_cluster_161411759_817484963_890670257_948231317_10" function="internal">
        <lane id=":cluster_890670257_cluster_161411759_cluster_161411759_817484963_890670257_948231317_10_0" index="0" disallow="tram rail_urban rail rail_electric rail_fast ship" speed="12.59" length="34.50" shape="843.27,905.16 837.77,913.99 831.40,919.34 824.15,921.23 816.02,919.65"/>
    </edge>
    <edge id=":cluster_890670257_cluster_161411759_cluster_161411759_817484963_890670257_948231317_11" function="internal">
        <lane id=":cluster_890670257_cluster_161411759_cluster_161411759_817484963_890670257_948231317_11_0" index="0" disallow="tram rail_urban rail rail_electric rail_fast ship" speed="4.77" length="9.51" shape="843.27,905.16 840.80,906.74 838.98,906.83 837.82,905.43 837.31,902.54"/>
    </edge>
    <edge id=":cluster_890670257_cluster_161411759_cluster_161411759_817484963_890670257_948231317_12" function="internal">
        <lane id=":cluster_890670257_cluster_161411759_cluster_161411759_817484963_890670257_948231317_12_0" index="0" disallow="tram rail_urban rail rail_electric rail_fast ship" speed="8.40" length="14.52" shape="821.78,904.78 826.19,905.74 829.77,905.47 832.49,903.97 834.38,901.26"/>
    </edge>
    <edge id=":cluster_890670257_cluster_161411759_cluster_161411759_817484963_890670257_948231317_13" function="internal">
        <lane id=":cluster_890670257_cluster_161411759_cluster_161411759_817484963_890670257_948231317_13_0" index="0" disallow="tram rail_urban rail rail_electric rail_fast ship" speed="27.78" length="32.01" shape="821.78,904.78 852.18,915.12"/>
        <lane id=":cluster_890670257_cluster_161411759_cluster_161411759_817484963_890670257_948231317_13_1" index="1" disallow="tram rail_urban rail rail_electric rail_fast ship" speed="27.78" length="32.01" shape="820.62,907.77 850.93,918.06"/>
        <lane id=":cluster_890670257_cluster_161411759_cluster_161411759_817484963_890670257_948231317_13_2" index="2" disallow="tram rail_urban rail rail_electric rail_fast ship" speed="27.78" length="32.01" shape="819.46,910.76 849.69,921.01"/>
    </edge>
    <edge id=":cluster_890670257_cluster_161411759_cluster_161411759_817484963_890670257_948231317_16" function="internal">
        <lane id=":cluster_890670257_cluster_161411759_cluster_161411759_817484963_890670257_948231317_16_0" index="0" disallow="tram rail_urban rail rail_electric rail_fast ship" speed="10.86" length="28.08" shape="818.30,913.75 824.56,917.03 828.06,921.94 828.78,928.47 826.74,936.63"/>
    </edge>
    <edge id=":cluster_890670257_cluster_161411759_cluster_161411759_817484963_890670257_948231317_17" function="internal">
        <lane id=":cluster_890670257_cluster_161411759_cluster_161411759_817484963_890670257_948231317_17_0" index="0" disallow="tram rail_urban rail rail_electric rail_fast ship" speed="4.73" length="9.24" shape="818.30,913.75 819.94,916.08 820.11,917.84 818.80,919.03 816.02,919.65"/>
    </edge>
    <edge id=":cluster_890670257_cluster_161411759_cluster_161411759_817484963_890670257_948231317_18" function="internal">
        <lane id=":cluster_890670257_cluster_161411759_cluster_161411759_817484963_890670257_948231317_18_0" index="0" disallow="tram rail_urban rail rail_electric rail_fast ship" speed="6.15" length="8.89" shape="816.34,932.64 817.24,930.36 817.10,928.43 815.92,926.85 813.70,925.61"/>
    </edge>
    <edge id=":cluster_890670257_cluster_161411759_cluster_161411759_817484963_890670257_948231317_19" function="internal">
        <lane id=":cluster_890670257_cluster_161411759_cluster_161411759_817484963_890670257_948231317_19_0" index="0" disallow="tram rail_urban rail rail_electric rail_fast ship" speed="27.78" length="36.14" shape="816.34,932.64 821.76,923.55 826.67,915.51 830.92,908.20 834.38,901.26"/>
        <lane id=":cluster_890670257_cluster_161411759_cluster_161411759_817484963_890670257_948231317_19_1" index="1" disallow="tram rail_urban rail rail_electric rail_fast ship" speed="27.78" length="36.14" shape="819.36,933.80 824.77,924.73 829.65,916.74 833.87,909.46 837.31,902.54"/>
    </edge>
    <edge id=":cluster_890670257_cluster_161411759_cluster_161411759_817484963_890670257_948231317_21" function="internal">
        <lane id=":cluster_890670257_cluster_161411759_cluster_161411759_817484963_890670257_948231317_21_0" index="0" disallow="tram rail_urban rail rail_electric rail_fast ship" speed="12.72" length="33.85" shape="822.39,934.96 828.54,926.41 835.14,921.24 842.19,919.44 849.69,921.01"/>
    </edge>

    <edge id="-161082236#1" from="1090750520" to="817497162" name="бул. Христо Ботев" priority="12" type="highway.primary" length="30.00">
        <lane id="-161082236#1_0" index="0" disallow="tram rail_urban rail rail_electric rail_fast ship" speed="27.78" length="30.00" shape="694.44,990.90 746.22,988.72">
            <param key="origId" value="161082236"/>
        </lane>
        <lane id="-161082236#1_1" index="1" disallow="tram rail_urban rail rail_electric rail_fast ship" speed="27.78" length="30.00" shape="694.57,994.10 746.36,991.92">
            <param key="origId" value="161082236"/>
        </lane>
    </edge>
    <edge id="-305384999#3" from="1698373733" to="cluster_829171827_890670350" name="Лев Толостой" priority="10" type="highway.tertiary" shape="1284.20,1171.67 1304.76,1122.18">
        <lane id="-305384999#3_0" index="0" disallow="tram rail_urban rail rail_electric rail_fast ship" speed="22.22" length="44.83" shape="1282.72,1171.06 1299.92,1129.66">
            <param key="origId" value="305384999"/>
        </lane>
        <param key="origTo" value="829171827"/>
    </edge>
    <edge id="-471168801#4" from="cluster_829171827_890670350" to="4653306326" name="Професор Цветан Лазаров" priority="10" type="highway.tertiary" shape="1309.70,1111.90 1329.17,1062.23">
        <lane id="-471168801#4_0" index="0" disallow="tram rail_urban rail rail_electric rail_fast ship" speed="22.22" length="44.46" shape="1311.45,1103.04 1327.68,1061.65">
            <param key="origId" value="471168801"/>
        </lane>
        <param key="origFrom" value="890670350"/>
    </edge>
    <edge id="-67676489#1" from="817497162" to="cluster_817485017_817497129" name="бул. Христо Ботев" priority="12" type="highway.primary" length="20.00" shape="741.36,993.73 784.33,995.14">