<?xml version="1.0" encoding="UTF-8"?>

<!-- generated on 2022-12-06 13:58:15 by Eclipse SUMO netconvert Version 1.10.0
<configuration xmlns:xsi="http://www.w3.org/2001/XMLSchema-instance" xsi:noNamespaceSchemaLocation="http://sumo.dlr.de/xsd/netconvertConfiguration.xsd">

    <input>
        <sumo-net-file value="largeR.net.xml"/>
    </input>

    <output>
        <output-file value="largeRdown.net.xml"/>
        <output.street-names value="true"/>
    </output>

    <processing>
        <geometry.min-radius.fix.railways value="false"/>
        <geometry.max-grade.fix value="false"/>
        <offset.disable-normalization value="true"/>
        <lefthand value="false"/>
    </processing>

    <edge_removal>
        <keep-edges.in-boundary value="2743.82,197.13,5349.52,1934.99"/>
    </edge_removal>

    <junctions>
        <no-turnarounds value="true"/>
        <junctions.corner-detail value="5"/>
        <junctions.limit-turn-speed value="5.5"/>
        <rectangular-lane-cut value="false"/>
    </junctions>

    <pedestrian>
        <walkingareas value="false"/>
    </pedestrian>

    <report>
        <aggregate-warnings value="5"/>
    </report>

</configuration>
-->

<net version="1.9" junctionCornerDetail="5" limitTurnSpeed="5.50" xmlns:xsi="http://www.w3.org/2001/XMLSchema-instance" xsi:noNamespaceSchemaLocation="http://sumo.dlr.de/xsd/net_file.xsd">

    <location netOffset="-312195.61,-4666326.23" convBoundary="2489.77,661.32,5031.19,2363.17" origBoundary="24.725718,42.117759,24.792474,42.155549" projParameter="+proj=utm +zone=35 +ellps=WGS84 +datum=WGS84 +units=m +no_defs"/>

    <type id="highway.bridleway" priority="1" numLanes="1" speed="2.78" allow="pedestrian" oneway="1" width="2.00"/>
    <type id="highway.bus_guideway" priority="1" numLanes="1" speed="27.78" allow="bus" oneway="1"/>
    <type id="highway.cycleway" priority="1" numLanes="1" speed="8.33" allow="bicycle" oneway="1" width="1.00"/>
    <type id="highway.footway" priority="1" numLanes="1" speed="2.78" allow="pedestrian" oneway="1" width="2.00"/>
    <type id="highway.ford" priority="1" numLanes="1" speed="2.78" allow="army" oneway="1"/>
    <type id="highway.living_street" priority="2" numLanes="1" speed="2.78" disallow="tram rail_urban rail rail_electric rail_fast ship" oneway="1"/>
    <type id="highway.motorway" priority="14" numLanes="2" speed="39.44" allow="private emergency authority army vip passenger hov taxi bus coach delivery truck trailer motorcycle evehicle custom1 custom2" oneway="1"/>
    <type id="highway.motorway_link" priority="9" numLanes="1" speed="22.22" allow="private emergency authority army vip passenger hov taxi bus coach delivery truck trailer motorcycle evehicle custom1 custom2" oneway="1"/>
    <type id="highway.path" priority="1" numLanes="1" speed="2.78" allow="pedestrian bicycle" oneway="1" width="2.00"/>
    <type id="highway.pedestrian" priority="1" numLanes="1" speed="2.78" allow="pedestrian" oneway="1" width="2.00"/>
    <type id="highway.primary" priority="12" numLanes="2" speed="27.78" disallow="tram rail_urban rail rail_electric rail_fast ship" oneway="1"/>
    <type id="highway.primary_link" priority="7" numLanes="1" speed="22.22" disallow="tram rail_urban rail rail_electric rail_fast ship" oneway="1"/>
    <type id="highway.raceway" priority="15" numLanes="2" speed="83.33" allow="vip" oneway="1"/>
    <type id="highway.residential" priority="3" numLanes="1" speed="13.89" disallow="tram rail_urban rail rail_electric rail_fast ship" oneway="1"/>
    <type id="highway.secondary" priority="11" numLanes="1" speed="27.78" disallow="tram rail_urban rail rail_electric rail_fast ship" oneway="1"/>
    <type id="highway.secondary_link" priority="6" numLanes="1" speed="22.22" disallow="tram rail_urban rail rail_electric rail_fast ship" oneway="1"/>
    <type id="highway.service" priority="1" numLanes="1" speed="5.56" allow="pedestrian delivery bicycle" oneway="1"/>
    <type id="highway.stairs" priority="1" numLanes="1" speed="1.39" allow="pedestrian" oneway="1" width="2.00"/>
    <type id="highway.step" priority="1" numLanes="1" speed="1.39" allow="pedestrian" oneway="1" width="2.00"/>
    <type id="highway.steps" priority="1" numLanes="1" speed="1.39" allow="pedestrian" oneway="1" width="2.00"/>
    <type id="highway.tertiary" priority="10" numLanes="1" speed="22.22" disallow="tram rail_urban rail rail_electric rail_fast ship" oneway="1"/>
    <type id="highway.tertiary_link" priority="5" numLanes="1" speed="22.22" disallow="tram rail_urban rail rail_electric rail_fast ship" oneway="1"/>
    <type id="highway.track" priority="1" numLanes="1" speed="5.56" allow="pedestrian motorcycle moped bicycle" oneway="1"/>
    <type id="highway.trunk" priority="13" numLanes="2" speed="27.78" disallow="pedestrian bicycle tram rail_urban rail rail_electric rail_fast ship" oneway="1"/>
    <type id="highway.trunk_link" priority="8" numLanes="1" speed="22.22" disallow="pedestrian bicycle tram rail_urban rail rail_electric rail_fast ship" oneway="1"/>
    <type id="highway.unclassified" priority="4" numLanes="1" speed="13.89" disallow="tram rail_urban rail rail_electric rail_fast ship" oneway="1"/>
    <type id="highway.unsurfaced" priority="1" numLanes="1" speed="8.33" disallow="tram rail_urban rail rail_electric rail_fast ship" oneway="1"/>
    <type id="railway.highspeed" priority="21" numLanes="1" speed="69.44" allow="rail_fast" oneway="1"/>
    <type id="railway.light_rail" priority="19" numLanes="1" speed="27.78" allow="rail_urban" oneway="1"/>
    <type id="railway.preserved" priority="16" numLanes="1" speed="27.78" allow="rail" oneway="1"/>
    <type id="railway.rail" priority="20" numLanes="1" speed="44.44" allow="rail" oneway="1"/>
    <type id="railway.subway" priority="18" numLanes="1" speed="27.78" allow="rail_urban" oneway="1"/>
    <type id="railway.tram" priority="17" numLanes="1" speed="13.89" allow="tram" oneway="1"/>

    <edge id=":1137920506_0" function="internal">
        <lane id=":1137920506_0_0" index="0" disallow="tram rail_urban rail rail_electric rail_fast ship" speed="6.51" length="8.97" shape="2954.56,1859.78 2954.11,1857.36 2952.99,1855.66 2951.22,1854.68 2948.77,1854.41"/>
    </edge>
    <edge id=":1137920506_1" function="internal">
        <lane id=":1137920506_1_0" index="0" disallow="tram rail_urban rail rail_electric rail_fast ship" speed="27.78" length="14.22" shape="2954.56,1859.78 2954.10,1845.50"/>
        <lane id=":1137920506_1_1" index="1" disallow="tram rail_urban rail rail_electric rail_fast ship" speed="27.78" length="14.22" shape="2957.76,1859.64 2957.30,1845.43"/>
        <lane id=":1137920506_1_2" index="2" disallow="tram rail_urban rail rail_electric rail_fast ship" speed="27.78" length="14.22" shape="2960.95,1859.50 2960.50,1845.36"/>
    </edge>
    <edge id=":1137920506_4" function="internal">
        <lane id=":1137920506_4_0" index="0" disallow="tram rail_urban rail rail_electric rail_fast ship" speed="6.51" length="8.97" shape="2948.67,1851.21 2951.09,1850.79 2952.80,1849.70 2953.80,1847.93 2954.10,1845.50"/>
    </edge>
    <edge id=":1137920506_5" function="internal">
        <lane id=":1137920506_5_0" index="0" disallow="tram rail_urban rail rail_electric rail_fast ship" speed="3.65" length="4.67" shape="2948.67,1851.21 2949.90,1851.98 2950.32,1852.76 2949.95,1853.58 2948.77,1854.41"/>
    </edge>
    <edge id=":1137920526_0" function="internal">
        <lane id=":1137920526_0_0" index="0" disallow="tram rail_urban rail rail_electric rail_fast ship" speed="6.07" length="8.02" shape="2739.74,1840.77 2737.62,1840.14 2736.25,1838.99 2735.61,1837.30 2735.73,1835.10"/>
    </edge>
    <edge id=":1137920526_1" function="internal">
        <lane id=":1137920526_1_0" index="0" disallow="tram rail_urban rail rail_electric rail_fast ship" speed="3.65" length="2.65" shape="2739.74,1840.77 2738.67,1839.81 2738.39,1838.96 2738.57,1838.70"/>
    </edge>
    <edge id=":1137920526_4" function="internal">
        <lane id=":1137920526_4_0" index="0" disallow="tram rail_urban rail rail_electric rail_fast ship" speed="3.65" length="2.03" shape="2738.57,1838.70 2738.90,1838.22 2740.21,1837.61"/>
    </edge>
    <edge id=":1137920526_2" function="internal">
        <lane id=":1137920526_2_0" index="0" disallow="tram rail_urban rail rail_electric rail_fast ship" speed="3.90" length="2.67" shape="2738.87,1835.71 2738.83,1836.45 2739.04,1837.01 2739.50,1837.40 2740.21,1837.61"/>
    </edge>
    <edge id=":1137920526_3" function="internal">
        <lane id=":1137920526_3_0" index="0" disallow="tram rail_urban rail rail_electric rail_fast ship" speed="3.65" length="2.08" shape="2738.87,1835.71 2737.85,1836.74 2737.24,1836.91"/>
    </edge>
    <edge id=":1137920526_5" function="internal">
        <lane id=":1137920526_5_0" index="0" disallow="tram rail_urban rail rail_electric rail_fast ship" speed="3.65" length="2.59" shape="2737.24,1836.91 2736.99,1836.97 2736.28,1836.43 2735.73,1835.10"/>
    </edge>
    <edge id=":1174817663_0" function="internal">
        <lane id=":1174817663_0_0" index="0" disallow="tram rail_urban rail rail_electric rail_fast ship" speed="3.65" length="4.67" shape="3324.11,1992.46 3323.52,1993.77 3322.79,1994.30 3321.94,1994.04 3320.95,1992.98"/>
    </edge>
    <edge id=":1174817670_0" function="internal">
        <lane id=":1174817670_0_0" index="0" disallow="tram rail_urban rail rail_electric rail_fast ship" speed="7.03" length="9.67" shape="3289.89,1849.80 3288.97,1847.53 3287.44,1846.00 3285.29,1845.20 3282.53,1845.13"/>
    </edge>
    <edge id=":1174817670_1" function="internal">
        <lane id=":1174817670_1_0" index="0" disallow="tram rail_urban rail rail_electric rail_fast ship" speed="13.89" length="14.42" shape="3289.89,1849.80 3286.77,1835.72"/>
    </edge>
    <edge id=":1174817670_2" function="internal">
        <lane id=":1174817670_2_0" index="0" disallow="tram rail_urban rail rail_electric rail_fast ship" speed="3.65" length="2.34" shape="3289.89,1849.80 3290.40,1848.45 3291.09,1847.88"/>
    </edge>
    <edge id=":1174817670_9" function="internal">
        <lane id=":1174817670_9_0" index="0" disallow="tram rail_urban rail rail_electric rail_fast ship" speed="3.65" length="2.34" shape="3291.09,1847.88 3291.96,1848.09 3293.01,1849.08"/>
    </edge>
    <edge id=":1174817670_3" function="internal">
        <lane id=":1174817670_3_0" index="0" disallow="tram rail_urban rail rail_electric rail_fast ship" speed="13.89" length="14.37" shape="3289.90,1835.05 3293.01,1849.08"/>
    </edge>
    <edge id=":1174817670_4" function="internal">
        <lane id=":1174817670_4_0" index="0" disallow="tram rail_urban rail rail_electric rail_fast ship" speed="7.81" length="5.89" shape="3289.90,1835.05 3290.17,1839.12 3289.54,1840.81"/>
    </edge>
    <edge id=":1174817670_5" function="internal">
        <lane id=":1174817670_5_0" index="0" disallow="tram rail_urban rail rail_electric rail_fast ship" speed="3.65" length="2.34" shape="3289.90,1835.05 3289.37,1836.39 3288.67,1836.95"/>
    </edge>
    <edge id=":1174817670_10" function="internal">
        <lane id=":1174817670_10_0" index="0" disallow="tram rail_urban rail rail_electric rail_fast ship" speed="7.81" length="8.75" shape="3289.54,1840.81 3289.04,1842.15 3286.49,1844.16 3282.53,1845.13"/>
    </edge>
    <edge id=":1174817670_11" function="internal">
        <lane id=":1174817670_11_0" index="0" disallow="tram rail_urban rail rail_electric rail_fast ship" speed="3.65" length="2.34" shape="3288.67,1836.95 3287.80,1836.72 3286.77,1835.72"/>
    </edge>
    <edge id=":1174817670_6" function="internal">
        <lane id=":1174817670_6_0" index="0" disallow="tram rail_urban rail rail_electric rail_fast ship" speed="6.27" length="9.04" shape="3282.22,1841.95 3284.66,1841.34 3286.24,1840.11 3286.94,1838.23 3286.77,1835.72"/>
    </edge>
    <edge id=":1174817670_7" function="internal">
        <lane id=":1174817670_7_0" index="0" disallow="tram rail_urban rail rail_electric rail_fast ship" speed="8.45" length="14.36" shape="3282.22,1841.95 3286.25,1842.06 3289.39,1843.29 3291.64,1845.63 3293.01,1849.08"/>
    </edge>
    <edge id=":1174817670_8" function="internal">
        <lane id=":1174817670_8_0" index="0" disallow="tram rail_urban rail rail_electric rail_fast ship" speed="3.65" length="4.67" shape="3282.22,1841.95 3283.49,1842.62 3283.96,1843.38 3283.64,1844.22 3282.53,1845.13"/>
    </edge>
    <edge id=":1174817673_0" function="internal">
        <lane id=":1174817673_0_0" index="0" disallow="tram rail_urban rail rail_electric rail_fast ship" speed="6.09" length="1.08" shape="3064.04,1831.77 3064.31,1830.73"/>
    </edge>
    <edge id=":1174817673_1" function="internal">
        <lane id=":1174817673_1_0" index="0" disallow="tram rail_urban rail rail_electric rail_fast ship" speed="3.65" length="1.12" shape="3064.04,1831.77 3064.63,1830.82"/>
    </edge>
    <edge id=":1174817673_4" function="internal">
        <lane id=":1174817673_4_0" index="0" disallow="tram rail_urban rail rail_electric rail_fast ship" speed="6.09" length="6.65" shape="3064.31,1830.73 3064.39,1830.42 3065.54,1829.42 3067.49,1828.78 3070.23,1828.48"/>
    </edge>
    <edge id=":1174817673_5" function="internal">
        <lane id=":1174817673_5_0" index="0" disallow="tram rail_urban rail rail_electric rail_fast ship" speed="3.65" length="3.55" shape="3064.63,1830.82 3064.80,1830.55 3065.59,1830.13 3066.40,1830.50 3067.23,1831.68"/>
    </edge>
    <edge id=":1174817673_2" function="internal">
        <lane id=":1174817673_2_0" index="0" disallow="tram rail_urban rail rail_electric rail_fast ship" speed="13.89" length="9.37" shape="3060.87,1828.74 3070.23,1828.48"/>
    </edge>
    <edge id=":1174817673_3" function="internal">
        <lane id=":1174817673_3_0" index="0" disallow="tram rail_urban rail rail_electric rail_fast ship" speed="6.09" length="7.73" shape="3060.87,1828.74 3063.62,1828.88 3065.60,1829.42 3066.80,1830.35 3067.23,1831.68"/>
    </edge>
    <edge id=":1194258146_0" function="internal">
        <lane id=":1194258146_0_0" index="0" disallow="tram rail_urban rail rail_electric rail_fast ship" speed="3.65" length="4.67" shape="2808.71,1981.77 2807.96,1983.00 2807.18,1983.44 2806.36,1983.07 2805.51,1981.91"/>
    </edge>
    <edge id=":1194258175_0" function="internal">
        <lane id=":1194258175_0_0" index="0" disallow="tram rail_urban rail rail_electric rail_fast ship" speed="7.62" length="10.30" shape="2798.90,1856.05 2798.26,1853.08 2797.07,1850.85 2795.31,1849.36 2793.00,1848.61"/>
    </edge>
    <edge id=":1194258175_1" function="internal">
        <lane id=":1194258175_1_0" index="0" disallow="tram rail_urban rail rail_electric rail_fast ship" speed="7.68" length="15.05" shape="2798.90,1856.05 2799.05,1851.79 2800.57,1848.90 2803.46,1847.36 2807.71,1847.19"/>
    </edge>
    <edge id=":1194258175_2" function="internal">
        <lane id=":1194258175_2_0" index="0" disallow="tram rail_urban rail rail_electric rail_fast ship" speed="3.65" length="4.67" shape="2798.90,1856.05 2799.57,1854.77 2800.32,1854.28 2801.16,1854.60 2802.08,1855.70"/>
    </edge>
    <edge id=":1194258175_3" function="internal">
        <lane id=":1194258175_3_0" index="0" disallow="tram rail_urban rail rail_electric rail_fast ship" speed="6.10" length="9.06" shape="2807.39,1850.37 2804.83,1850.48 2803.09,1851.40 2802.17,1853.14 2802.08,1855.70"/>
    </edge>
    <edge id=":1194258175_4" function="internal">
        <lane id=":1194258175_4_0" index="0" disallow="tram rail_urban rail rail_electric rail_fast ship" speed="13.89" length="14.50" shape="2807.39,1850.37 2793.00,1848.61"/>
    </edge>
    <edge id=":1194258175_5" function="internal">
        <lane id=":1194258175_5_0" index="0" disallow="tram rail_urban rail rail_electric rail_fast ship" speed="3.65" length="2.34" shape="2807.39,1850.37 2806.27,1849.45 2805.96,1848.62"/>
    </edge>
    <edge id=":1194258175_9" function="internal">
        <lane id=":1194258175_9_0" index="0" disallow="tram rail_urban rail rail_electric rail_fast ship" speed="3.65" length="2.34" shape="2805.96,1848.62 2806.44,1847.86 2807.71,1847.19"/>
    </edge>
    <edge id=":1194258175_6" function="internal">
        <lane id=":1194258175_6_0" index="0" disallow="tram rail_urban rail rail_electric rail_fast ship" speed="13.89" length="14.35" shape="2793.46,1845.44 2807.71,1847.19"/>
    </edge>
    <edge id=":1194258175_7" function="internal">
        <lane id=":1194258175_7_0" index="0" disallow="tram rail_urban rail rail_electric rail_fast ship" speed="8.96" length="5.38" shape="2793.46,1845.44 2796.87,1846.51 2798.28,1847.65"/>
    </edge>
    <edge id=":1194258175_8" function="internal">
        <lane id=":1194258175_8_0" index="0" disallow="tram rail_urban rail rail_electric rail_fast ship" speed="3.65" length="2.34" shape="2793.46,1845.44 2794.54,1846.41 2794.81,1847.26"/>
    </edge>
    <edge id=":1194258175_10" function="internal">
        <lane id=":1194258175_10_0" index="0" disallow="tram rail_urban rail rail_electric rail_fast ship" speed="8.96" length="9.17" shape="2798.28,1847.65 2799.44,1848.57 2801.17,1851.64 2802.08,1855.70"/>
    </edge>
    <edge id=":1194258175_11" function="internal">
        <lane id=":1194258175_11_0" index="0" disallow="tram rail_urban rail rail_electric rail_fast ship" speed="3.65" length="2.34" shape="2794.81,1847.26 2794.30,1847.99 2793.00,1848.61"/>
    </edge>
    <edge id=":1350379845_0" function="internal">
        <lane id=":1350379845_0_0" index="0" disallow="tram rail_urban rail rail_electric rail_fast ship" speed="3.65" length="4.67" shape="2964.09,1012.68 2962.87,1011.92 2962.44,1011.13 2962.81,1010.32 2963.99,1009.48"/>
    </edge>
    <edge id=":1366788133_0" function="internal">
        <lane id=":1366788133_0_0" index="0" disallow="tram rail_urban rail rail_electric rail_fast ship" speed="3.65" length="4.67" shape="3025.06,1696.08 3023.85,1695.30 3023.43,1694.51 3023.81,1693.70 3025.00,1692.88"/>
    </edge>
    <edge id=":1366788136_0" function="internal">
        <lane id=":1366788136_0_0" index="0" disallow="tram rail_urban rail rail_electric rail_fast ship" speed="13.89" length="14.41" shape="3045.32,1695.67 3030.91,1695.97"/>
    </edge>
    <edge id=":1366788136_1" function="internal">
        <lane id=":1366788136_1_0" index="0" disallow="tram rail_urban rail rail_electric rail_fast ship" speed="8.02" length="5.94" shape="3045.32,1695.67 3041.47,1695.21 3039.68,1694.19"/>
    </edge>
    <edge id=":1366788136_2" function="internal">
        <lane id=":1366788136_2_0" index="0" disallow="tram rail_urban rail rail_electric rail_fast ship" speed="3.65" length="2.34" shape="3045.32,1695.67 3044.10,1694.90 3043.69,1694.11"/>
    </edge>
    <edge id=":1366788136_9" function="internal">
        <lane id=":1366788136_9_0" index="0" disallow="tram rail_urban rail rail_electric rail_fast ship" speed="8.02" length="8.27" shape="3039.68,1694.19 3038.68,1693.61 3036.96,1690.90 3036.31,1687.05"/>
    </edge>
    <edge id=":1366788136_10" function="internal">
        <lane id=":1366788136_10_0" index="0" disallow="tram rail_urban rail rail_electric rail_fast ship" speed="3.65" length="2.34" shape="3043.69,1694.11 3044.07,1693.30 3045.25,1692.47"/>
    </edge>
    <edge id=":1366788136_3" function="internal">
        <lane id=":1366788136_3_0" index="0" disallow="tram rail_urban rail rail_electric rail_fast ship" speed="6.53" length="9.06" shape="3039.51,1686.97 3039.93,1689.42 3041.02,1691.16 3042.79,1692.17 3045.25,1692.47"/>
    </edge>
    <edge id=":1366788136_4" function="internal">
        <lane id=":1366788136_4_0" index="0" disallow="tram rail_urban rail rail_electric rail_fast ship" speed="7.99" length="14.22" shape="3039.51,1686.97 3039.06,1690.84 3037.48,1693.63 3034.76,1695.34 3030.91,1695.97"/>
    </edge>
    <edge id=":1366788136_5" function="internal">
        <lane id=":1366788136_5_0" index="0" disallow="tram rail_urban rail rail_electric rail_fast ship" speed="3.65" length="4.67" shape="3039.51,1686.97 3038.74,1688.19 3037.95,1688.61 3037.14,1688.23 3036.31,1687.05"/>
    </edge>
    <edge id=":1366788136_6" function="internal">
        <lane id=":1366788136_6_0" index="0" disallow="tram rail_urban rail rail_electric rail_fast ship" speed="6.49" length="9.03" shape="3030.85,1692.77 3033.29,1692.37 3035.02,1691.29 3036.03,1689.51 3036.31,1687.05"/>
    </edge>
    <edge id=":1366788136_7" function="internal">
        <lane id=":1366788136_7_0" index="0" disallow="tram rail_urban rail rail_electric rail_fast ship" speed="13.89" length="14.40" shape="3030.85,1692.77 3045.25,1692.47"/>
    </edge>
    <edge id=":1366788136_8" function="internal">
        <lane id=":1366788136_8_0" index="0" disallow="tram rail_urban rail rail_electric rail_fast ship" speed="3.65" length="2.34" shape="3030.85,1692.77 3032.06,1693.55 3032.48,1694.34"/>
    </edge>
    <edge id=":1366788136_11" function="internal">
        <lane id=":1366788136_11_0" index="0" disallow="tram rail_urban rail rail_electric rail_fast ship" speed="3.65" length="2.34" shape="3032.48,1694.34 3032.09,1695.15 3030.91,1695.97"/>
    </edge>
    <edge id=":1366788142_0" function="internal">
        <lane id=":1366788142_0_0" index="0" disallow="tram rail_urban rail rail_electric rail_fast ship" speed="6.65" length="9.22" shape="3164.75,1698.58 3164.24,1696.17 3163.05,1694.47 3161.19,1693.47 3158.64,1693.18"/>
    </edge>
    <edge id=":1366788142_1" function="internal">
        <lane id=":1366788142_1_0" index="0" disallow="tram rail_urban rail rail_electric rail_fast ship" speed="13.89" length="14.40" shape="3164.75,1698.58 3163.91,1684.21"/>
    </edge>
    <edge id=":1366788142_2" function="internal">
        <lane id=":1366788142_2_0" index="0" disallow="tram rail_urban rail rail_electric rail_fast ship" speed="3.65" length="2.34" shape="3164.75,1698.58 3165.47,1697.34 3166.25,1696.89"/>
    </edge>
    <edge id=":1366788142_9" function="internal">
        <lane id=":1366788142_9_0" index="0" disallow="tram rail_urban rail rail_electric rail_fast ship" speed="3.65" length="2.34" shape="3166.25,1696.89 3167.07,1697.24 3167.94,1698.39"/>
    </edge>
    <edge id=":1366788142_3" function="internal">
        <lane id=":1366788142_3_0" index="0" disallow="tram rail_urban rail rail_electric rail_fast ship" speed="13.89" length="14.39" shape="3167.10,1684.03 3167.94,1698.39"/>
    </edge>
    <edge id=":1366788142_4" function="internal">
        <lane id=":1366788142_4_0" index="0" disallow="tram rail_urban rail rail_electric rail_fast ship" speed="7.94" length="5.92" shape="3167.10,1684.03 3166.77,1687.96 3165.83,1689.70"/>
    </edge>
    <edge id=":1366788142_5" function="internal">
        <lane id=":1366788142_5_0" index="0" disallow="tram rail_urban rail rail_electric rail_fast ship" speed="3.65" length="2.34" shape="3167.10,1684.03 3166.37,1685.27 3165.60,1685.72"/>
    </edge>
    <edge id=":1366788142_10" function="internal">
        <lane id=":1366788142_10_0" index="0" disallow="tram rail_urban rail rail_electric rail_fast ship" speed="7.94" length="8.41" shape="3165.83,1689.70 3165.24,1690.79 3162.54,1692.53 3158.64,1693.18"/>
    </edge>
    <edge id=":1366788142_11" function="internal">
        <lane id=":1366788142_11_0" index="0" disallow="tram rail_urban rail rail_electric rail_fast ship" speed="3.65" length="2.34" shape="3165.60,1685.72 3164.78,1685.36 3163.91,1684.21"/>
    </edge>
    <edge id=":1366788142_6" function="internal">
        <lane id=":1366788142_6_0" index="0" disallow="tram rail_urban rail rail_electric rail_fast ship" speed="6.43" length="9.03" shape="3158.57,1689.98 3161.03,1689.57 3162.74,1688.48 3163.70,1686.69 3163.91,1684.21"/>
    </edge>
    <edge id=":1366788142_7" function="internal">
        <lane id=":1366788142_7_0" index="0" disallow="tram rail_urban rail rail_electric rail_fast ship" speed="8.12" length="14.24" shape="3158.57,1689.98 3162.48,1690.43 3165.34,1691.99 3167.16,1694.64 3167.94,1698.39"/>
    </edge>
    <edge id=":1366788142_8" function="internal">
        <lane id=":1366788142_8_0" index="0" disallow="tram rail_urban rail rail_electric rail_fast ship" speed="3.65" length="4.67" shape="3158.57,1689.98 3159.79,1690.75 3160.21,1691.55 3159.83,1692.35 3158.64,1693.18"/>
    </edge>
    <edge id=":1483376281_0" function="internal">
        <lane id=":1483376281_0_0" index="0" disallow="tram rail_urban rail rail_electric rail_fast ship" speed="8.75" length="11.62" shape="3471.42,1315.58 3470.95,1312.00 3469.94,1309.18 3468.40,1307.12 3466.33,1305.83"/>
    </edge>
    <edge id=":1483376281_1" function="internal">
        <lane id=":1483376281_1_0" index="0" disallow="tram rail_urban rail rail_electric rail_fast ship" speed="7.46" length="16.16" shape="3471.42,1315.58 3471.83,1310.84 3473.64,1308.05 3476.86,1307.22 3481.48,1308.33"/>
    </edge>
    <edge id=":1483376281_2" function="internal">
        <lane id=":1483376281_2_0" index="0" disallow="tram rail_urban rail rail_electric rail_fast ship" speed="3.65" length="4.67" shape="3471.42,1315.58 3472.15,1314.34 3472.93,1313.90 3473.75,1314.26 3474.61,1315.41"/>
    </edge>
    <edge id=":1483376281_3" function="internal">
        <lane id=":1483376281_3_0" index="0" disallow="tram rail_urban rail rail_electric rail_fast ship" speed="5.78" length="9.15" shape="3480.32,1311.31 3477.70,1310.68 3475.87,1311.15 3474.85,1312.73 3474.61,1315.41"/>
    </edge>
    <edge id=":1483376281_4" function="internal">
        <lane id=":1483376281_4_0" index="0" disallow="tram rail_urban rail rail_electric rail_fast ship" speed="13.89" length="15.02" shape="3480.32,1311.31 3466.33,1305.83"/>
    </edge>
    <edge id=":1483376281_5" function="internal">
        <lane id=":1483376281_5_0" index="0" disallow="tram rail_urban rail rail_electric rail_fast ship" speed="3.65" length="2.34" shape="3480.32,1311.31 3479.49,1310.12 3479.41,1309.23"/>
    </edge>
    <edge id=":1483376281_9" function="internal">
        <lane id=":1483376281_9_0" index="0" disallow="tram rail_urban rail rail_electric rail_fast ship" speed="3.65" length="2.34" shape="3479.41,1309.23 3480.07,1308.63 3481.48,1308.33"/>
    </edge>
    <edge id=":1483376281_6" function="internal">
        <lane id=":1483376281_6_0" index="0" disallow="tram rail_urban rail rail_electric rail_fast ship" speed="13.89" length="15.02" shape="3467.50,1302.85 3481.48,1308.33"/>
    </edge>
    <edge id=":1483376281_7" function="internal">
        <lane id=":1483376281_7_0" index="0" disallow="tram rail_urban rail rail_electric rail_fast ship" speed="9.97" length="5.49" shape="3467.50,1302.85 3470.42,1304.60 3471.72,1306.22"/>
    </edge>
    <edge id=":1483376281_8" function="internal">
        <lane id=":1483376281_8_0" index="0" disallow="tram rail_urban rail rail_electric rail_fast ship" speed="3.65" length="2.34" shape="3467.50,1302.85 3468.32,1304.03 3468.40,1304.92"/>
    </edge>
    <edge id=":1483376281_10" function="internal">
        <lane id=":1483376281_10_0" index="0" disallow="tram rail_urban rail rail_electric rail_fast ship" speed="9.97" length="9.80" shape="3471.72,1306.22 3472.58,1307.28 3473.98,1310.89 3474.61,1315.41"/>
    </edge>
    <edge id=":1483376281_11" function="internal">
        <lane id=":1483376281_11_0" index="0" disallow="tram rail_urban rail rail_electric rail_fast ship" speed="3.65" length="2.34" shape="3468.40,1304.92 3467.74,1305.52 3466.33,1305.83"/>
    </edge>
    <edge id=":1483376425_0" function="internal">
        <lane id=":1483376425_0_0" index="0" disallow="tram rail_urban rail rail_electric rail_fast ship" speed="6.43" length="9.03" shape="3226.76,1386.51 3226.37,1384.05 3225.29,1382.34 3223.50,1381.37 3221.03,1381.14"/>
    </edge>
    <edge id=":1483376425_1" function="internal">
        <lane id=":1483376425_1_0" index="0" disallow="tram rail_urban rail rail_electric rail_fast ship" speed="13.89" length="14.46" shape="3226.76,1386.51 3226.24,1372.05"/>
    </edge>
    <edge id=":1483376425_2" function="internal">
        <lane id=":1483376425_2_0" index="0" disallow="tram rail_urban rail rail_electric rail_fast ship" speed="8.14" length="14.32" shape="3226.76,1386.51 3227.25,1382.61 3228.84,1379.76 3231.54,1377.96 3235.34,1377.21"/>
    </edge>
    <edge id=":1483376425_3" function="internal">
        <lane id=":1483376425_3_0" index="0" disallow="tram rail_urban rail rail_electric rail_fast ship" speed="3.65" length="4.67" shape="3226.76,1386.51 3227.55,1385.30 3228.34,1384.89 3229.14,1385.27 3229.96,1386.46"/>
    </edge>
    <edge id=":1483376425_4" function="internal">
        <lane id=":1483376425_4_0" index="0" disallow="tram rail_urban rail rail_electric rail_fast ship" speed="6.67" length="9.28" shape="3235.50,1380.41 3233.04,1380.89 3231.30,1382.06 3230.28,1383.92 3229.96,1386.46"/>
    </edge>
    <edge id=":1483376425_5" function="internal">
        <lane id=":1483376425_5_0" index="0" disallow="tram rail_urban rail rail_electric rail_fast ship" speed="13.89" length="14.49" shape="3235.50,1380.41 3221.03,1381.14"/>
    </edge>
    <edge id=":1483376425_6" function="internal">
        <lane id=":1483376425_6_0" index="0" disallow="tram rail_urban rail rail_electric rail_fast ship" speed="8.02" length="5.91" shape="3235.50,1380.41 3231.64,1380.05 3229.84,1379.09"/>
    </edge>
    <edge id=":1483376425_7" function="internal">
        <lane id=":1483376425_7_0" index="0" disallow="tram rail_urban rail rail_electric rail_fast ship" speed="3.65" length="2.34" shape="3235.50,1380.41 3234.26,1379.67 3233.82,1378.89"/>
    </edge>
    <edge id=":1483376425_16" function="internal">
        <lane id=":1483376425_16_0" index="0" disallow="tram rail_urban rail rail_electric rail_fast ship" speed="8.02" length="8.29" shape="3229.84,1379.09 3228.81,1378.54 3227.01,1375.87 3226.24,1372.05"/>
    </edge>
    <edge id=":1483376425_17" function="internal">