<?xml version="1.0" encoding="UTF-8"?>

<!-- generated on 2022-08-18 12:47:27 by Eclipse SUMO netedit Version 1.10.0
<configuration xmlns:xsi="http://www.w3.org/2001/XMLSchema-instance" xsi:noNamespaceSchemaLocation="http://sumo.dlr.de/xsd/netconvertConfiguration.xsd">

    <input>
        <sumo-net-file value="Sim/net/Mend-SktP.net.xml"/>
    </input>

    <output>
        <output-file value="Sim/net/Mend-SktP.net.xml"/>
        <output.street-names value="true"/>
    </output>

    <processing>
        <geometry.min-radius.fix.railways value="false"/>
        <geometry.max-grade.fix value="false"/>
        <offset.disable-normalization value="true"/>
        <lefthand value="false"/>
    </processing>

    <junctions>
        <no-turnarounds value="true"/>
        <junctions.corner-detail value="5"/>
        <junctions.limit-turn-speed value="5.5"/>
        <rectangular-lane-cut value="false"/>
    </junctions>

    <pedestrian>
        <walkingareas value="false"/>
    </pedestrian>

    <report>
        <aggregate-warnings value="5"/>
    </report>

</configuration>
-->

<net version="1.9" junctionCornerDetail="5" limitTurnSpeed="5.50" xmlns:xsi="http://www.w3.org/2001/XMLSchema-instance" xsi:noNamespaceSchemaLocation="http://sumo.dlr.de/xsd/net_file.xsd">

    <location netOffset="-314340.44,-4667081.10" convBoundary="733.84,103.89,902.99,761.33" origBoundary="24.753470,42.133910,24.771969,42.145475" projParameter="+proj=utm +zone=35 +ellps=WGS84 +datum=WGS84 +units=m +no_defs"/>

    <type id="highway.bridleway" priority="1" numLanes="1" speed="2.78" allow="pedestrian" oneway="1" width="2.00"/>
    <type id="highway.bus_guideway" priority="1" numLanes="1" speed="27.78" allow="bus" oneway="1"/>
    <type id="highway.cycleway" priority="1" numLanes="1" speed="8.33" allow="bicycle" oneway="1" width="1.00"/>
    <type id="highway.footway" priority="1" numLanes="1" speed="2.78" allow="pedestrian" oneway="1" width="2.00"/>
    <type id="highway.ford" priority="1" numLanes="1" speed="2.78" allow="army" oneway="1"/>
    <type id="highway.living_street" priority="2" numLanes="1" speed="2.78" disallow="tram rail_urban rail rail_electric rail_fast ship" oneway="1"/>
    <type id="highway.motorway" priority="14" numLanes="2" speed="39.44" allow="private emergency authority army vip passenger hov taxi bus coach delivery truck trailer motorcycle evehicle custom1 custom2" oneway="1"/>
    <type id="highway.motorway_link" priority="9" numLanes="1" speed="22.22" allow="private emergency authority army vip passenger hov taxi bus coach delivery truck trailer motorcycle evehicle custom1 custom2" oneway="1"/>
    <type id="highway.path" priority="1" numLanes="1" speed="2.78" allow="pedestrian bicycle" oneway="1" width="2.00"/>
    <type id="highway.pedestrian" priority="1" numLanes="1" speed="2.78" allow="pedestrian" oneway="1" width="2.00"/>
    <type id="highway.primary" priority="12" numLanes="2" speed="27.78" disallow="tram rail_urban rail rail_electric rail_fast ship" oneway="1"/>
    <type id="highway.primary_link" priority="7" numLanes="1" speed="22.22" disallow="tram rail_urban rail rail_electric rail_fast ship" oneway="1"/>
    <type id="highway.raceway" priority="15" numLanes="2" speed="83.33" allow="vip" oneway="1"/>
    <type id="highway.residential" priority="3" numLanes="1" speed="13.89" disallow="tram rail_urban rail rail_electric rail_fast ship" oneway="1"/>
    <type id="highway.secondary" priority="11" numLanes="1" speed="27.78" disallow="tram rail_urban rail rail_electric rail_fast ship" oneway="1"/>
    <type id="highway.secondary_link" priority="6" numLanes="1" speed="22.22" disallow="tram rail_urban rail rail_electric rail_fast ship" oneway="1"/>
    <type id="highway.service" priority="1" numLanes="1" speed="5.56" allow="pedestrian delivery bicycle" oneway="1"/>
    <type id="highway.stairs" priority="1" numLanes="1" speed="1.39" allow="pedestrian" oneway="1" width="2.00"/>
    <type id="highway.step" priority="1" numLanes="1" speed="1.39" allow="pedestrian" oneway="1" width="2.00"/>
    <type id="highway.steps" priority="1" numLanes="1" speed="1.39" allow="pedestrian" oneway="1" width="2.00"/>
    <type id="highway.tertiary" priority="10" numLanes="1" speed="22.22" disallow="tram rail_urban rail rail_electric rail_fast ship" oneway="1"/>
    <type id="highway.tertiary_link" priority="5" numLanes="1" speed="22.22" disallow="tram rail_urban rail rail_electric rail_fast ship" oneway="1"/>
    <type id="highway.track" priority="1" numLanes="1" speed="5.56" allow="pedestrian motorcycle moped bicycle" oneway="1"/>
    <type id="highway.trunk" priority="13" numLanes="2" speed="27.78" disallow="pedestrian bicycle tram rail_urban rail rail_electric rail_fast ship" oneway="1"/>
    <type id="highway.trunk_link" priority="8" numLanes="1" speed="22.22" disallow="pedestrian bicycle tram rail_urban rail rail_electric rail_fast ship" oneway="1"/>
    <type id="highway.unclassified" priority="4" numLanes="1" speed="13.89" disallow="tram rail_urban rail rail_electric rail_fast ship" oneway="1"/>
    <type id="highway.unsurfaced" priority="1" numLanes="1" speed="8.33" disallow="tram rail_urban rail rail_electric rail_fast ship" oneway="1"/>
    <type id="railway.highspeed" priority="21" numLanes="1" speed="69.44" allow="rail_fast" oneway="1"/>
    <type id="railway.light_rail" priority="19" numLanes="1" speed="27.78" allow="rail_urban" oneway="1"/>
    <type id="railway.preserved" priority="16" numLanes="1" speed="27.78" allow="rail" oneway="1"/>
    <type id="railway.rail" priority="20" numLanes="1" speed="44.44" allow="rail" oneway="1"/>
    <type id="railway.subway" priority="18" numLanes="1" speed="27.78" allow="rail_urban" oneway="1"/>
    <type id="railway.tram" priority="17" numLanes="1" speed="13.89" allow="tram" oneway="1"/>

    <edge id=":817484976_0" function="internal">
        <lane id=":817484976_0_0" index="0" disallow="tram rail_urban rail rail_electric rail_fast ship" speed="25.00" length="13.28" shape="792.19,167.99 789.58,166.01 787.30,164.39 784.60,162.94 780.73,161.46"/>
    </edge>
    <edge id=":817484976_1" function="internal">
        <lane id=":817484976_1_0" index="0" disallow="tram rail_urban rail rail_electric rail_fast ship" speed="27.78" length="13.70" shape="794.21,164.00 790.26,163.04 787.46,162.77 784.66,162.48 780.73,161.46"/>
        <lane id=":817484976_1_1" index="1" disallow="tram rail_urban rail rail_electric rail_fast ship" speed="27.78" length="13.70" shape="795.16,160.95 791.23,160.00 788.44,159.73 785.66,159.43 781.74,158.42"/>
        <lane id=":817484976_1_2" index="2" disallow="tram rail_urban rail rail_electric rail_fast ship" speed="27.78" length="13.70" shape="796.12,157.90 792.20,156.95 789.42,156.68 786.65,156.39 782.75,155.38"/>
    </edge>
    <edge id=":cluster_161411759_cluster_161411759_817484963_890670257_948231317_0" function="internal">
        <lane id=":cluster_161411759_cluster_161411759_817484963_890670257_948231317_0_0" index="0" disallow="tram rail_urban rail rail_electric rail_fast ship" speed="6.87" length="10.00" shape="843.02,181.79 840.32,181.16 838.06,181.51 836.25,182.85 834.89,185.16"/>
    </edge>
    <edge id=":cluster_161411759_cluster_161411759_817484963_890670257_948231317_1" function="internal">
        <lane id=":cluster_161411759_cluster_161411759_817484963_890670257_948231317_1_0" index="0" disallow="tram rail_urban rail rail_electric rail_fast ship" speed="27.78" length="32.13" shape="844.15,178.79 834.93,175.78 828.25,174.38 821.75,173.07 813.07,170.37"/>
        <lane id=":cluster_161411759_cluster_161411759_817484963_890670257_948231317_1_1" index="1" disallow="tram rail_urban rail rail_electric rail_fast ship" speed="27.78" length="32.13" shape="844.15,178.79 814.18,167.36"/>
        <lane id=":cluster_161411759_cluster_161411759_817484963_890670257_948231317_1_2" index="2" disallow="tram rail_urban rail rail_electric rail_fast ship" speed="27.78" length="32.13" shape="845.27,175.79 815.30,164.36"/>
    </edge>
    <edge id=":cluster_161411759_cluster_161411759_817484963_890670257_948231317_4" function="internal">
        <lane id=":cluster_161411759_cluster_161411759_817484963_890670257_948231317_4_0" index="0" disallow="tram rail_urban rail rail_electric rail_fast ship" speed="11.77" length="33.44" shape="846.40,172.80 837.68,168.16 832.61,162.30 831.19,155.22 833.42,146.92"/>
        <lane id=":cluster_161411759_cluster_161411759_817484963_890670257_948231317_4_1" index="1" disallow="tram rail_urban rail rail_electric rail_fast ship" speed="11.29" length="30.70" shape="846.40,172.80 838.98,168.67 834.84,163.21 833.95,156.40 836.33,148.25"/>
    </edge>
    <edge id=":cluster_161411759_cluster_161411759_817484963_890670257_948231317_6" function="internal">
        <lane id=":cluster_161411759_cluster_161411759_817484963_890670257_948231317_6_0" index="0" disallow="tram rail_urban rail rail_electric rail_fast ship" speed="4.75" length="9.47" shape="846.40,172.80 844.69,170.43 844.50,168.62 845.83,167.39 848.67,166.73"/>
    </edge>
    <edge id=":cluster_161411759_cluster_161411759_817484963_890670257_948231317_7" function="internal">
        <lane id=":cluster_161411759_cluster_161411759_817484963_890670257_948231317_7_0" index="0" disallow="tram rail_urban rail rail_electric rail_fast ship" speed="6.28" length="9.00" shape="848.06,153.58 847.29,155.95 847.51,157.93 848.72,159.53 850.92,160.73"/>
    </edge>
    <edge id=":cluster_161411759_cluster_161411759_817484963_890670257_948231317_8" function="internal">
        <lane id=":cluster_161411759_cluster_161411759_817484963_890670257_948231317_8_0" index="0" disallow="tram rail_urban rail rail_electric rail_fast ship" speed="27.78" length="34.55" shape="848.06,153.58 834.89,185.16"/>
        <lane id=":cluster_161411759_cluster_161411759_817484963_890670257_948231317_8_1" index="1" disallow="tram rail_urban rail rail_electric rail_fast ship" speed="27.78" length="34.55" shape="845.15,152.26 831.92,183.95"/>
        <lane id=":cluster_161411759_cluster_161411759_817484963_890670257_948231317_8_2" index="2" disallow="tram rail_urban rail rail_electric rail_fast ship" speed="27.78" length="34.55" shape="845.15,152.26 828.96,182.75"/>
        <lane id=":cluster_161411759_cluster_161411759_817484963_890670257_948231317_8_3" index="3" disallow="tram rail_urban rail rail_electric rail_fast ship" speed="27.78" length="34.55" shape="845.15,152.26 840.27,160.22 835.55,165.86 830.84,172.02 826.00,181.54"/>
    </edge>
    <edge id=":cluster_161411759_cluster_161411759_817484963_890670257_948231317_12" function="internal">
        <lane id=":cluster_161411759_cluster_161411759_817484963_890670257_948231317_12_0" index="0" disallow="tram rail_urban rail rail_electric rail_fast ship" speed="13.03" length="36.20" shape="842.23,150.93 836.89,157.65 828.52,164.51 819.72,169.43 813.07,170.37"/>
        <lane id=":cluster_161411759_cluster_161411759_817484963_890670257_948231317_12_1" index="1" disallow="tram rail_urban rail rail_electric rail_fast ship" speed="12.62" length="33.88" shape="842.23,150.93 837.15,157.22 829.31,163.09 820.92,166.99 814.18,167.36"/>
        <lane id=":cluster_161411759_cluster_161411759_817484963_890670257_948231317_12_2" index="2" disallow="tram rail_urban rail rail_electric rail_fast ship" speed="12.22" length="31.70" shape="842.23,150.93 837.42,156.78 830.13,161.69 822.15,164.57 815.30,164.36"/>
    </edge>
    <edge id=":cluster_161411759_cluster_161411759_817484963_890670257_948231317_15" function="internal">
        <lane id=":cluster_161411759_cluster_161411759_817484963_890670257_948231317_15_0" index="0" disallow="tram rail_urban rail rail_electric rail_fast ship" speed="4.76" length="4.73" shape="842.23,150.93 839.75,152.47 837.94,152.54"/>
    </edge>
    <edge id=":cluster_161411759_cluster_161411759_817484963_890670257_948231317_27" function="internal">
        <lane id=":cluster_161411759_cluster_161411759_817484963_890670257_948231317_27_0" index="0" disallow="tram rail_urban rail rail_electric rail_fast ship" speed="4.76" length="4.73" shape="837.94,152.54 836.80,151.13 836.33,148.25"/>
    </edge>
    <edge id=":cluster_161411759_cluster_161411759_817484963_890670257_948231317_16" function="internal">
        <lane id=":cluster_161411759_cluster_161411759_817484963_890670257_948231317_16_0" index="0" disallow="tram rail_urban rail rail_electric rail_fast ship" speed="8.32" length="14.06" shape="820.85,149.38 825.38,150.42 828.99,150.36 831.67,149.20 833.42,146.92"/>
    </edge>
    <edge id=":cluster_161411759_cluster_161411759_817484963_890670257_948231317_17" function="internal">
        <lane id=":cluster_161411759_cluster_161411759_817484963_890670257_948231317_17_0" index="0" disallow="tram rail_urban rail rail_electric rail_fast ship" speed="27.78" length="32.14" shape="820.85,149.38 850.92,160.73"/>
        <lane id=":cluster_161411759_cluster_161411759_817484963_890670257_948231317_17_1" index="1" disallow="tram rail_urban rail rail_electric rail_fast ship" speed="27.78" length="32.14" shape="819.73,152.38 849.80,163.73"/>
        <lane id=":cluster_161411759_cluster_161411759_817484963_890670257_948231317_17_2" index="2" disallow="tram rail_urban rail rail_electric rail_fast ship" speed="27.78" length="32.14" shape="818.62,155.38 848.67,166.73"/>
    </edge>
    <edge id=":cluster_161411759_cluster_161411759_817484963_890670257_948231317_20" function="internal">
        <lane id=":cluster_161411759_cluster_161411759_817484963_890670257_948231317_20_0" index="0" disallow="tram rail_urban rail rail_electric rail_fast ship" speed="10.85" length="28.57" shape="817.51,158.39 823.99,161.74 827.56,166.71 828.23,173.31 826.00,181.54"/>
    </edge>
    <edge id=":cluster_161411759_cluster_161411759_817484963_890670257_948231317_21" function="internal">
        <lane id=":cluster_161411759_cluster_161411759_817484963_890670257_948231317_21_0" index="0" disallow="tram rail_urban rail rail_electric rail_fast ship" speed="4.74" length="9.31" shape="817.51,158.39 819.20,160.71 819.39,162.48 818.09,163.70 815.30,164.36"/>
    </edge>
    <edge id=":cluster_161411759_cluster_161411759_817484963_890670257_948231317_22" function="internal">
        <lane id=":cluster_161411759_cluster_161411759_817484963_890670257_948231317_22_0" index="0" disallow="tram rail_urban rail rail_electric rail_fast ship" speed="27.78" length="35.11" shape="816.14,177.52 820.81,168.23 825.49,160.48 829.82,153.61 833.42,146.92"/>
        <lane id=":cluster_161411759_cluster_161411759_817484963_890670257_948231317_22_1" index="1" disallow="tram rail_urban rail rail_electric rail_fast ship" speed="27.78" length="35.11" shape="819.11,178.73 823.76,169.45 828.43,161.75 832.74,154.92 836.33,148.25"/>
    </edge>
    <edge id=":cluster_161411759_cluster_161411759_817484963_890670257_948231317_24" function="internal">
        <lane id=":cluster_161411759_cluster_161411759_817484963_890670257_948231317_24_0" index="0" disallow="tram rail_urban rail rail_electric rail_fast ship" speed="12.74" length="36.00" shape="822.07,179.94 827.14,173.15 835.31,166.34 844.07,161.52 850.92,160.73"/>
        <lane id=":cluster_161411759_cluster_161411759_817484963_890670257_948231317_24_1" index="1" disallow="tram rail_urban rail rail_electric rail_fast ship" speed="12.34" length="33.69" shape="822.07,179.94 826.88,173.58 834.52,167.75 842.87,163.96 849.80,163.73"/>
        <lane id=":cluster_161411759_cluster_161411759_817484963_890670257_948231317_24_2" index="2" disallow="tram rail_urban rail rail_electric rail_fast ship" speed="11.94" length="31.51" shape="822.07,179.94 826.61,174.02 833.71,169.15 841.64,166.38 848.67,166.73"/>
    </edge>

    <edge id="136100505#0" from="cluster_161411759_cluster_161411759_817484963_890670257_948231317" to="817497129" name="бул. Източен" priority="12" type="highway.primary" spreadType="center" length="20.00" shape="831.77,180.09 817.64,214.75">
        <lane id="136100505#0_0" index="0" disallow="tram rail_urban rail rail_electric rail_fast ship" speed="27.78" length="20.00" shape="834.89,185.16 822.08,216.56">
            <param key="origId" value="136100505 136100505 1037186337"/>
        </lane>
        <lane id="136100505#0_1" index="1" disallow="tram rail_urban rail rail_electric rail_fast ship" speed="27.78" length="20.00" shape="831.92,183.95 819.12,215.35">
            <param key="origId" value="136100505 136100505 1037186337"/>
        </lane>
        <lane id="136100505#0_2" index="2" disallow="tram rail_urban rail rail_electric rail_fast ship" speed="27.78" length="20.00" shape="828.96,182.75 816.16,214.15">
            <param key="origId" value="136100505 136100505 1037186337"/>
        </lane>
        <lane id="136100505#0_3" index="3" disallow="tram rail_urban rail rail_electric rail_fast ship" speed="27.78" length="20.00" shape="826.00,181.54 813.20,212.94">
            <param key="origId" value="136100505 136100505 1037186337"/>
        </lane>
        <param key="origTo" value="817497129"/>
    </edge>
    <edge id="136100509" from="cluster_161411759_cluster_161411759_817484963_890670257_948231317" to="817484960" name="бул. Менделеев" priority="12" type="highway.primary" spreadType="center" length="50.00" shape="833.41,150.81 854.76,103.89">
        <lane id="136100509_0" index="0" disallow="tram rail_urban rail rail_electric rail_fast ship" speed="27.78" length="50.00" shape="833.42,146.92 853.30,103.23">
            <param key="origId" value="136100509"/>
        </lane>
        <lane id="136100509_1" index="1" disallow="tram rail_urban rail rail_electric rail_fast ship" speed="27.78" length="50.00" shape="836.33,148.25 856.22,104.55">
            <param key="origId" value="136100509"/>
        </lane>
        <param key="origFrom" value="948231317"/>
    </edge>
    <edge id="136100522#1" from="cluster_161411759_cluster_161411759_817484963_890670257_948231317" to="890670350" name="бул. Санкт Петербург" priority="11" type="highway.secondary" spreadType="center" length="50.00" shape="845.96,162.29 902.99,183.69">
        <lane id="136100522#1_0" index="0" disallow="tram rail_urban rail rail_electric rail_fast ship" speed="27.78" length="50.00" shape="850.92,160.73 904.11,180.69">
            <param key="origId" value="136100522"/>
        </lane>
        <lane id="136100522#1_1" index="1" disallow="tram rail_urban rail rail_electric rail_fast ship" speed="27.78" length="50.00" shape="849.80,163.73 902.99,183.69">
            <param key="origId" value="136100522"/>
        </lane>
        <lane id="136100522#1_2" index="2" disallow="tram rail_urban rail rail_electric rail_fast ship" speed="27.78" length="50.00" shape="848.67,166.73 901.87,186.69">
            <param key="origId" value="136100522"/>
        </lane>
        <param key="origFrom" value="890670257"/>
        <param key="ref" value="8604"/>
    </edge>
    <edge id="136100525#1" from="cluster_161411759_cluster_161411759_817484963_890670257_948231317" to="817484976" name="бул. Санкт Петербург" priority="11" type="highway.secondary" spreadType="center" length="20.00" shape="818.90,169.11 806.23,164.42 782.24,156.90">
        <lane id="136100525#1_0" index="0" disallow="tram rail_urban rail rail_electric rail_fast ship" speed="27.78" length="20.00" shape="813.07,170.37 805.20,167.45 794.21,164.00">
            <param key="origId" value="136100525"/>
        </lane>
        <lane id="136100525#1_1" index="1" disallow="tram rail_urban rail rail_electric rail_fast ship" speed="27.78" length="20.00" shape="814.18,167.36 806.23,164.42 795.16,160.95">
            <param key="origId" value="136100525"/>
        </lane>
        <lane id="136100525#1_2" index="2" disallow="tram rail_urban rail rail_electric rail_fast ship" speed="27.78" length="20.00" shape="815.30,164.36 807.26,161.39 796.12,157.90">
            <param key="origId" value="136100525"/>
        </lane>
        <param key="origFrom" value="817484963"/>
        <param key="ref" value="8604"/>
    </edge>
    <edge id="136100525#3-AddedOnRampEdge" from="817484976" to="cluster_gneJ0_gneJ1" name="бул. Санкт Петербург" priority="11" type="highway.secondary" spreadType="center" length="30.00" shape="781.74,158.42 764.27,152.63 737.16,146.09">
        <lane id="136100525#3-AddedOnRampEdge_0" index="0" disallow="tram rail_urban rail rail_electric rail_fast ship" speed="27.78" length="30.00" acceleration="1" shape="780.73,161.46 763.39,155.71 732.97,148.37">
            <param key="origId" value="136100525"/>
        </lane>
        <lane id="136100525#3-AddedOnRampEdge_1" index="1" disallow="tram rail_urban rail rail_electric rail_fast ship" speed="27.78" length="30.00" shape="781.74,158.42 764.27,152.63 733.72,145.26">
            <param key="origId" value="136100525"/>
        </lane>
        <lane id="136100525#3-AddedOnRampEdge_2" index="2" disallow="tram rail_urban rail rail_electric rail_fast ship" speed="27.78" length="30.00" shape="782.75,155.38 765.15,149.55 734.47,142.15">
            <param key="origId" value="136100525"/>
        </lane>
        <param key="ref" value="8604"/>
    </edge>
    <edge id="161137081#1" from="gneJ0" to="cluster_161411759_cluster_161411759_817484963_890670257_948231317" name="бул. Източен" priority="12" type="highway.primary" spreadType="center" length="20.00" shape="806.19,207.40 817.94,181.38 820.56,175.42">
        <lane id="161137081#1_0" index="0" disallow="tram rail_urban rail rail_electric rail_fast ship" speed="27.78" length="20.00" shape="803.27,206.08 815.02,180.07 816.14,177.52">
            <param key="origId" value="161137081"/>
        </lane>
        <lane id="161137081#1_1" index="1" disallow="tram rail_urban rail rail_electric rail_fast ship" speed="27.78" length="20.00" shape="806.19,207.40 817.94,181.38 819.11,178.73">
            <param key="origId" value="161137081"/>
        </lane>
        <lane id="161137081#1_2" index="2" disallow="tram rail_urban rail rail_electric rail_fast ship" speed="27.78" length="20.00" shape="809.11,208.72 820.86,182.69 822.07,179.94">
            <param key="origId" value="161137081"/>
        </lane>
        <param key="origTo" value="817484963"/>
    </edge>
    <edge id="230878792#1" from="3289869079" to="cluster_161411759_cluster_161411759_817484963_890670257_948231317" name="бул. Санкт Петербург" priority="11" type="highway.secondary" spreadType="center" length="50.00" shape="897.18,197.34 840.75,175.78">
        <lane id="230878792#1_0" index="0" disallow="tram rail_urban rail rail_electric rail_fast ship" speed="27.78" length="50.00" shape="895.47,201.82 843.02,181.79">
            <param key="origId" value="230878792"/>
        </lane>
        <lane id="230878792#1_1" index="1" disallow="tram rail_urban rail rail_electric rail_fast ship" speed="27.78" length="50.00" shape="896.61,198.83 844.15,178.79">
            <param key="origId" value="230878792"/>
        </lane>
        <lane id="230878792#1_2" index="2" disallow="tram rail_urban rail rail_electric rail_fast ship" speed="27.78" length="50.00" shape="897.75,195.85 845.27,175.79">
            <param key="origId" value="230878792"/>
        </lane>
        <lane id="230878792#1_3" index="3" disallow="tram rail_urban rail rail_electric rail_fast ship" speed="27.78" length="50.00" shape="898.89,192.86 846.40,172.80">
            <param key="origId" value="230878792"/>
        </lane>
        <param key="origTo" value="161411759"/>
        <param key="ref" value="8604"/>
    </edge>
    <edge id="25625330#0" from="948218592" to="cluster_161411759_cluster_161411759_817484963_890670257_948231317" name="бул. Менделеев" priority="12" type="highway.primary" spreadType="center" length="50.00" shape="865.66,110.91 843.30,155.98">
        <lane id="25625330#0_0" index="0" disallow="tram rail_urban rail rail_electric rail_fast ship" speed="27.78" length="50.00" shape="868.53,112.33 848.06,153.58">
            <param key="origId" value="25625330"/>
        </lane>
        <lane id="25625330#0_1" index="1" disallow="tram rail_urban rail rail_electric rail_fast ship" speed="27.78" length="50.00" shape="865.66,110.91 845.15,152.26">
            <param key="origId" value="25625330"/>
        </lane>
        <lane id="25625330#0_2" index="2" disallow="tram rail_urban rail rail_electric rail_fast ship" speed="27.78" length="50.00" shape="862.79,109.49 842.23,150.93">
            <param key="origId" value="25625330"/>
        </lane>
        <param key="origTo" value="890670257"/>
    </edge>
    <edge id="67673623#0" from="gneJ1" to="817484976" name="бул. Източен" priority="7" type="highway.primary_link" spreadType="center" shape="801.78,205.51 804.56,186.78 802.69,179.63 798.55,172.67 781.23,159.94">
        <lane id="67673623#0_0" index="0" disallow="tram rail_urban rail rail_electric rail_fast ship" speed="22.22" length="42.32" shape="801.78,205.51 804.56,186.78 802.69,179.63 798.55,172.67 792.19,167.99">
            <param key="origId" value="67673623"/>
        </lane>
    </edge>
    <edge id="81371106#1" from="948231311" to="cluster_161411759_cluster_161411759_817484963_890670257_948231317" name="бул. Санкт Петербург" priority="11" type="highway.secondary" spreadType="center" length="50.00" shape="742.61,129.38 824.11,155.46">
        <lane id="81371106#1_0" index="0" disallow="tram rail_urban rail rail_electric rail_fast ship" speed="27.78" length="50.00" shape="744.07,124.81 820.85,149.38">
            <param key="origId" value="81371106"/>
        </lane>
        <lane id="81371106#1_1" index="1" disallow="tram rail_urban rail rail_electric rail_fast ship" speed="27.78" length="50.00" shape="743.10,127.86 819.73,152.38">
            <param key="origId" value="81371106"/>
        </lane>
        <lane id="81371106#1_2" index="2" disallow="tram rail_urban rail rail_electric rail_fast ship" speed="27.78" length="50.00" shape="742.12,130.90 818.62,155.38">
            <param key="origId" value="81371106"/>
        </lane>
        <lane id="81371106#1_3" index="3" disallow="tram rail_urban rail rail_electric rail_fast ship" speed="27.78" length="50.00" shape="741.15,133.95 817.51,158.39">
            <param key="origId" value="81371106"/>
        </lane>
        <param key="origTo" value="948231317"/>
        <param key="ref" value="8604"/>
    </edge>

    <tlLogic id="gneJ1" type="static" programID="0" offset="0">
        <phase duration="20" state="rrrrrrrGGGGGGGGgGrrrrrrrrrr"/>
        <phase duration="6"  state="rrrrrrryyyyyyyyyyrrrrrrrrrr"/>
        <phase duration="20" state="GGGGrrrrrrrrrrrrGGGGrrrrrrr"/>
        <phase duration="6"  state="yyyyrrrrrrrrrrrryyyyrrrrrrr"/>
        <phase duration="6"  state="rrrrGGGrrrrrrrrrrrrrGGrrrrr"/>
        <phase duration="6"  state="rrrryyyrrrrrrrrrrrrryyrrrrr"/>
        <phase duration="20" state="GrrrrrrrrrrrrrrrrrrrrGGGGGG"/>
        <phase duration="6"  state="yrrrrrrrrrrrrrrrrrrrryyyyyy"/>
    </tlLogic>

    <junction id="3289869079" type="dead_end" x="897.18" y="197.34" incLanes="" intLanes="" shape="899.46,191.36 894.90,203.32"/>
    <junction id="570652652" type="dead_end" x="815.31" y="761.33" incLanes="" intLanes="" shape="815.31,761.33"/>
    <junction id="576941014" type="dead_end" x="798.33" y="757.84" incLanes="" intLanes="" shape="798.33,757.84"/>
    <junction id="817484960" type="dead_end" x="854.76" y="103.89" incLanes="136100509_0 136100509_1" intLanes="" shape="851.85,102.56 857.67,105.22"/>
    <junction id="817484976" type="priority" x="782.24" y="156.90" incLanes="67673623#0_0 136100525#1_0 136100525#1_1 136100525#1_2" intLanes=":817484976_0_0 :817484976_1_0 :817484976_1_1 :817484976_1_2" shape="791.24,169.28 793.13,166.70 793.73,165.53 796.60,156.37 793.81,155.63 791.69,155.29 789.91,155.16 788.14,155.01 786.03,154.65 783.25,153.86 780.23,162.98 782.78,163.88 784.62,164.66 786.08,165.47 787.45,166.42 789.07,167.65">
        <request index="0" response="1110" foes="1110" cont="0"/>
        <request index="1" response="0000" foes="0001" cont="0"/>
        <request index="2" response="0000" foes="0001" cont="0"/>
        <request index="3" response="0000" foes="0001" cont="0"/>
    </junction>
    <junction id="817497129" type="dead_end" x="817.64" y="214.75" incLanes="136100505#0_0 136100505#0_1 136100505#0_2 136100505#0_3" intLanes="" shape="823.57,217.17 811.71,212.33"/>
    <junction id="890670350" type="dead_end" x="902.99" y="183.69" incLanes="136100522#1_0 136100522#1_1 136100522#1_2" intLanes="" shape="904.68,179.20 901.30,188.18"/>
    <junction id="948218592" type="dead_end" x="865.66" y="110.91" incLanes="" intLanes="" shape="861.36,108.78 869.96,113.04"/>
    <junction id="948231311" type="dead_end" x="742.61" y="129.38" incLanes="" intLanes="" shape="740.66,135.48 744.56,123.28"/>