<?xml version="1.0" encoding="UTF-8"?>

<!-- generated on 2022-12-07 15:04:44 by Eclipse SUMO netconvert Version 1.10.0
<configuration xmlns:xsi="http://www.w3.org/2001/XMLSchema-instance" xsi:noNamespaceSchemaLocation="http://sumo.dlr.de/xsd/netconvertConfiguration.xsd">

    <input>
        <sumo-net-file value="MetroSktP.net.xml"/>
    </input>

    <output>
        <output-file value="Metro.net.xml"/>
        <output.street-names value="true"/>
    </output>

    <processing>
        <geometry.min-radius.fix.railways value="false"/>
        <geometry.max-grade.fix value="false"/>
        <offset.disable-normalization value="true"/>
        <lefthand value="false"/>
    </processing>

    <edge_removal>
        <keep-edges.in-boundary value="4713.95,944.01,5859.78,2742.72"/>
    </edge_removal>

    <junctions>
        <no-turnarounds value="true"/>
        <junctions.corner-detail value="5"/>
        <junctions.limit-turn-speed value="5.5"/>
        <rectangular-lane-cut value="false"/>
    </junctions>

    <pedestrian>
        <walkingareas value="false"/>
    </pedestrian>

    <report>
        <aggregate-warnings value="5"/>
    </report>

</configuration>
-->

<net version="1.9" junctionCornerDetail="5" limitTurnSpeed="5.50" xmlns:xsi="http://www.w3.org/2001/XMLSchema-instance" xsi:noNamespaceSchemaLocation="http://sumo.dlr.de/xsd/net_file.xsd">

    <location netOffset="-312195.61,-4666326.23" convBoundary="4544.58,1614.72,4889.63,1846.10" origBoundary="24.725718,42.117759,24.792474,42.155549" projParameter="+proj=utm +zone=35 +ellps=WGS84 +datum=WGS84 +units=m +no_defs"/>

    <type id="highway.bridleway" priority="1" numLanes="1" speed="2.78" allow="pedestrian" oneway="1" width="2.00"/>
    <type id="highway.bus_guideway" priority="1" numLanes="1" speed="27.78" allow="bus" oneway="1"/>
    <type id="highway.cycleway" priority="1" numLanes="1" speed="8.33" allow="bicycle" oneway="1" width="1.00"/>
    <type id="highway.footway" priority="1" numLanes="1" speed="2.78" allow="pedestrian" oneway="1" width="2.00"/>
    <type id="highway.ford" priority="1" numLanes="1" speed="2.78" allow="army" oneway="1"/>
    <type id="highway.living_street" priority="2" numLanes="1" speed="2.78" disallow="tram rail_urban rail rail_electric rail_fast ship" oneway="1"/>
    <type id="highway.motorway" priority="14" numLanes="2" speed="39.44" allow="private emergency authority army vip passenger hov taxi bus coach delivery truck trailer motorcycle evehicle custom1 custom2" oneway="1"/>
    <type id="highway.motorway_link" priority="9" numLanes="1" speed="22.22" allow="private emergency authority army vip passenger hov taxi bus coach delivery truck trailer motorcycle evehicle custom1 custom2" oneway="1"/>
    <type id="highway.path" priority="1" numLanes="1" speed="2.78" allow="pedestrian bicycle" oneway="1" width="2.00"/>
    <type id="highway.pedestrian" priority="1" numLanes="1" speed="2.78" allow="pedestrian" oneway="1" width="2.00"/>
    <type id="highway.primary" priority="12" numLanes="2" speed="27.78" disallow="tram rail_urban rail rail_electric rail_fast ship" oneway="1"/>
    <type id="highway.primary_link" priority="7" numLanes="1" speed="22.22" disallow="tram rail_urban rail rail_electric rail_fast ship" oneway="1"/>
    <type id="highway.raceway" priority="15" numLanes="2" speed="83.33" allow="vip" oneway="1"/>
    <type id="highway.residential" priority="3" numLanes="1" speed="13.89" disallow="tram rail_urban rail rail_electric rail_fast ship" oneway="1"/>
    <type id="highway.secondary" priority="11" numLanes="1" speed="27.78" disallow="tram rail_urban rail rail_electric rail_fast ship" oneway="1"/>
    <type id="highway.secondary_link" priority="6" numLanes="1" speed="22.22" disallow="tram rail_urban rail rail_electric rail_fast ship" oneway="1"/>
    <type id="highway.service" priority="1" numLanes="1" speed="5.56" allow="pedestrian delivery bicycle" oneway="1"/>
    <type id="highway.stairs" priority="1" numLanes="1" speed="1.39" allow="pedestrian" oneway="1" width="2.00"/>
    <type id="highway.step" priority="1" numLanes="1" speed="1.39" allow="pedestrian" oneway="1" width="2.00"/>
    <type id="highway.steps" priority="1" numLanes="1" speed="1.39" allow="pedestrian" oneway="1" width="2.00"/>
    <type id="highway.tertiary" priority="10" numLanes="1" speed="22.22" disallow="tram rail_urban rail rail_electric rail_fast ship" oneway="1"/>
    <type id="highway.tertiary_link" priority="5" numLanes="1" speed="22.22" disallow="tram rail_urban rail rail_electric rail_fast ship" oneway="1"/>
    <type id="highway.track" priority="1" numLanes="1" speed="5.56" allow="pedestrian motorcycle moped bicycle" oneway="1"/>
    <type id="highway.trunk" priority="13" numLanes="2" speed="27.78" disallow="pedestrian bicycle tram rail_urban rail rail_electric rail_fast ship" oneway="1"/>
    <type id="highway.trunk_link" priority="8" numLanes="1" speed="22.22" disallow="pedestrian bicycle tram rail_urban rail rail_electric rail_fast ship" oneway="1"/>
    <type id="highway.unclassified" priority="4" numLanes="1" speed="13.89" disallow="tram rail_urban rail rail_electric rail_fast ship" oneway="1"/>
    <type id="highway.unsurfaced" priority="1" numLanes="1" speed="8.33" disallow="tram rail_urban rail rail_electric rail_fast ship" oneway="1"/>
    <type id="railway.highspeed" priority="21" numLanes="1" speed="69.44" allow="rail_fast" oneway="1"/>
    <type id="railway.light_rail" priority="19" numLanes="1" speed="27.78" allow="rail_urban" oneway="1"/>
    <type id="railway.preserved" priority="16" numLanes="1" speed="27.78" allow="rail" oneway="1"/>
    <type id="railway.rail" priority="20" numLanes="1" speed="44.44" allow="rail" oneway="1"/>
    <type id="railway.subway" priority="18" numLanes="1" speed="27.78" allow="rail_urban" oneway="1"/>
    <type id="railway.tram" priority="17" numLanes="1" speed="13.89" allow="tram" oneway="1"/>

    <edge id=":1640887613_0" function="internal">
        <lane id=":1640887613_0_0" index="0" disallow="tram rail_urban rail rail_electric rail_fast ship" speed="27.78" length="14.50" shape="4856.11,1741.96 4853.82,1745.44 4852.22,1747.81 4850.79,1750.27 4849.01,1754.03"/>
        <lane id=":1640887613_0_1" index="1" disallow="tram rail_urban rail rail_electric rail_fast ship" speed="27.78" length="14.50" shape="4853.40,1740.24 4851.04,1743.84 4849.40,1746.30 4847.93,1748.85 4846.09,1752.73"/>
        <lane id=":1640887613_0_2" index="2" disallow="tram rail_urban rail rail_electric rail_fast ship" speed="27.78" length="14.50" shape="4850.70,1738.53 4848.26,1742.24 4846.57,1744.78 4845.06,1747.42 4843.16,1751.42"/>
    </edge>
    <edge id=":1640887613_3" function="internal">
        <lane id=":1640887613_3_0" index="0" disallow="tram rail_urban rail rail_electric rail_fast ship" speed="11.89" length="16.66" shape="4846.48,1738.13 4848.65,1742.70 4849.79,1746.88 4849.91,1750.65 4849.01,1754.03"/>
        <lane id=":1640887613_3_1" index="1" disallow="tram rail_urban rail rail_electric rail_fast ship" speed="10.98" length="14.12" shape="4843.47,1739.30 4845.43,1743.34 4846.52,1746.93 4846.74,1750.06 4846.09,1752.73"/>
        <lane id=":1640887613_3_2" index="2" disallow="tram rail_urban rail rail_electric rail_fast ship" speed="9.99" length="11.60" shape="4840.46,1740.47 4842.21,1743.98 4843.25,1746.98 4843.56,1749.46 4843.16,1751.42"/>
    </edge>
    <edge id=":829200655_0" function="internal">
        <lane id=":829200655_0_0" index="0" disallow="tram rail_urban rail rail_electric rail_fast ship" speed="27.78" length="0.38" shape="4779.60,1789.05 4779.83,1788.46"/>
        <lane id=":829200655_0_1" index="1" disallow="tram rail_urban rail rail_electric rail_fast ship" speed="27.78" length="0.38" shape="4782.62,1790.11 4782.76,1789.76"/>
        <lane id=":829200655_0_2" index="2" disallow="tram rail_urban rail rail_electric rail_fast ship" speed="27.78" length="0.38" shape="4785.64,1791.17 4785.68,1791.05"/>
    </edge>
    <edge id=":964939224_0" function="internal">
        <lane id=":964939224_0_0" index="0" disallow="tram rail_urban rail rail_electric rail_fast ship" speed="27.78" length="19.00" shape="4846.23,1760.26 4843.87,1765.21 4841.95,1768.44 4839.76,1771.52 4836.59,1776.02"/>
        <lane id=":964939224_0_1" index="1" disallow="tram rail_urban rail rail_electric rail_fast ship" speed="27.78" length="19.00" shape="4846.23,1760.26 4843.45,1764.95 4840.63,1767.54 4837.54,1769.99 4833.95,1774.22"/>
        <lane id=":964939224_0_2" index="2" disallow="tram rail_urban rail rail_electric rail_fast ship" speed="27.78" length="19.00" shape="4846.23,1760.26 4843.01,1764.75 4839.33,1766.65 4835.37,1768.40 4831.30,1772.42"/>
    </edge>
    <edge id=":964939224_3" function="internal">
        <lane id=":964939224_3_0" index="0" disallow="tram rail_urban rail rail_electric rail_fast ship" speed="11.55" length="18.16" shape="4843.31,1758.96 4841.03,1762.62 4837.85,1765.42 4833.77,1767.35 4828.79,1768.42"/>
        <lane id=":964939224_3_1" index="1" disallow="tram rail_urban rail rail_electric rail_fast ship" speed="10.53" length="14.99" shape="4840.39,1757.66 4838.54,1760.58 4835.90,1762.82 4832.47,1764.38 4828.25,1765.26"/>
        <lane id=":964939224_3_2" index="2" disallow="tram rail_urban rail rail_electric rail_fast ship" speed="10.12" length="13.78" shape="4840.39,1757.66 4839.07,1759.11 4836.52,1760.33 4832.74,1761.33 4827.72,1762.10"/>
    </edge>
    <edge id=":cluster_964939226_cluster_964939226_gneJ46_0" function="internal">
        <lane id=":cluster_964939226_cluster_964939226_gneJ46_0_0" index="0" disallow="tram rail_urban rail rail_electric rail_fast ship" speed="27.78" length="23.06" shape="4803.99,1763.51 4797.60,1761.09 4793.08,1759.75 4788.65,1758.22 4782.52,1755.23"/>
    </edge>
    <edge id=":cluster_964939226_cluster_964939226_gneJ46_1" function="internal">
        <lane id=":cluster_964939226_cluster_964939226_gneJ46_1_0" index="0" disallow="tram rail_urban rail rail_electric rail_fast ship" speed="9.05" length="19.32" shape="4803.99,1763.51 4799.43,1760.74 4796.95,1757.20 4796.57,1752.90 4798.27,1747.83"/>
    </edge>
    <edge id=":cluster_964939226_cluster_964939226_gneJ46_2" function="internal">
        <lane id=":cluster_964939226_cluster_964939226_gneJ46_2_0" index="0" disallow="tram rail_urban rail rail_electric rail_fast ship" speed="27.78" length="22.75" shape="4805.25,1760.57 4798.94,1758.18 4794.48,1756.87 4790.10,1755.36 4784.06,1752.42"/>
    </edge>
    <edge id=":cluster_964939226_cluster_964939226_gneJ46_3" function="internal">
        <lane id=":cluster_964939226_cluster_964939226_gneJ46_3_0" index="0" disallow="tram rail_urban rail rail_electric rail_fast ship" speed="7.76" length="13.92" shape="4805.25,1760.57 4801.96,1758.57 4800.18,1756.02 4799.90,1752.92 4801.13,1749.27"/>
    </edge>
    <edge id=":cluster_964939226_cluster_964939226_gneJ46_4" function="internal">
        <lane id=":cluster_964939226_cluster_964939226_gneJ46_4_0" index="0" disallow="tram rail_urban rail rail_electric rail_fast ship" speed="27.78" length="22.44" shape="4806.51,1757.63 4800.28,1755.28 4795.87,1753.99 4791.56,1752.51 4785.60,1749.61"/>
    </edge>
    <edge id=":cluster_964939226_cluster_964939226_gneJ46_5" function="internal">
        <lane id=":cluster_964939226_cluster_964939226_gneJ46_5_0" index="0" disallow="tram rail_urban rail rail_electric rail_fast ship" speed="6.21" length="8.52" shape="4806.51,1757.63 4804.50,1756.40 4803.40,1754.84 4803.23,1752.94 4803.98,1750.71"/>
    </edge>
    <edge id=":cluster_964939226_cluster_964939226_gneJ46_6" function="internal">
        <lane id=":cluster_964939226_cluster_964939226_gneJ46_6_0" index="0" disallow="tram rail_urban rail rail_electric rail_fast ship" speed="8.10" length="13.63" shape="4790.10,1765.21 4790.40,1762.82 4789.24,1760.36 4786.62,1757.83 4782.52,1755.23"/>
    </edge>
    <edge id=":cluster_964939226_cluster_964939226_gneJ46_7" function="internal">
        <lane id=":cluster_964939226_cluster_964939226_gneJ46_7_0" index="0" disallow="tram rail_urban rail rail_electric rail_fast ship" speed="27.78" length="19.21" shape="4790.10,1765.21 4798.27,1747.83"/>
    </edge>
    <edge id=":cluster_964939226_cluster_964939226_gneJ46_8" function="internal">
        <lane id=":cluster_964939226_cluster_964939226_gneJ46_8_0" index="0" disallow="tram rail_urban rail rail_electric rail_fast ship" speed="9.33" length="18.39" shape="4793.02,1766.50 4793.69,1762.85 4792.42,1759.28 4789.21,1755.81 4784.06,1752.42"/>
    </edge>
    <edge id=":cluster_964939226_cluster_964939226_gneJ46_9" function="internal">
        <lane id=":cluster_964939226_cluster_964939226_gneJ46_9_0" index="0" disallow="tram rail_urban rail rail_electric rail_fast ship" speed="27.78" length="18.96" shape="4793.02,1766.50 4801.13,1749.27"/>
        <lane id=":cluster_964939226_cluster_964939226_gneJ46_9_1" index="1" disallow="tram rail_urban rail rail_electric rail_fast ship" speed="27.78" length="18.96" shape="4795.95,1767.80 4803.98,1750.71"/>
    </edge>
    <edge id=":cluster_964939230_cluster_cluster_964939230_gneJ48_gneJ23_0" function="internal">
        <lane id=":cluster_964939230_cluster_cluster_964939230_gneJ48_gneJ23_0_0" index="0" disallow="tram rail_urban rail rail_electric rail_fast ship" speed="11.37" length="22.01" shape="4798.60,1713.30 4804.76,1715.16 4810.20,1715.33 4814.93,1713.81 4818.96,1710.59"/>
        <lane id=":cluster_964939230_cluster_cluster_964939230_gneJ48_gneJ23_0_1" index="1" disallow="tram rail_urban rail rail_electric rail_fast ship" speed="12.32" length="25.97" shape="4797.37,1716.25 4804.53,1718.39 4810.91,1718.52 4816.52,1716.63 4821.34,1712.73"/>
    </edge>
    <edge id=":cluster_964939230_cluster_cluster_964939230_gneJ48_gneJ23_2" function="internal">
        <lane id=":cluster_964939230_cluster_cluster_964939230_gneJ48_gneJ23_2_0" index="0" disallow="tram rail_urban rail rail_electric rail_fast ship" speed="27.78" length="28.04" shape="4797.37,1716.25 4805.32,1718.47 4811.17,1718.49 4817.05,1718.47 4825.04,1720.58"/>
        <lane id=":cluster_964939230_cluster_cluster_964939230_gneJ48_gneJ23_2_1" index="1" disallow="tram rail_urban rail rail_electric rail_fast ship" speed="27.78" length="28.04" shape="4796.14,1719.20 4804.10,1721.43 4809.97,1721.45 4815.85,1721.44 4823.85,1723.56"/>
        <lane id=":cluster_964939230_cluster_cluster_964939230_gneJ48_gneJ23_2_2" index="2" disallow="tram rail_urban rail rail_electric rail_fast ship" speed="27.78" length="28.04" shape="4796.14,1719.20 4803.84,1721.86 4809.37,1722.94 4814.92,1723.98 4822.67,1726.53"/>
    </edge>
    <edge id=":cluster_964939230_cluster_cluster_964939230_gneJ48_gneJ23_5" function="internal">
        <lane id=":cluster_964939230_cluster_cluster_964939230_gneJ48_gneJ23_5_0" index="0" disallow="tram rail_urban rail rail_electric rail_fast ship" speed="27.78" length="21.65" shape="4807.77,1728.97 4810.55,1723.17 4812.48,1719.17 4814.85,1715.48 4818.96,1710.59"/>
    </edge>
    <edge id=":cluster_964939230_cluster_cluster_964939230_gneJ48_gneJ23_6" function="internal">
        <lane id=":cluster_964939230_cluster_cluster_964939230_gneJ48_gneJ23_6_0" index="0" disallow="tram rail_urban rail rail_electric rail_fast ship" speed="10.05" length="21.45" shape="4807.77,1728.97 4811.26,1723.68 4815.30,1720.51 4819.89,1719.48 4825.04,1720.58"/>
    </edge>
    <edge id=":cluster_964939230_cluster_cluster_964939230_gneJ48_gneJ23_7" function="internal">
        <lane id=":cluster_964939230_cluster_cluster_964939230_gneJ48_gneJ23_7_0" index="0" disallow="tram rail_urban rail rail_electric rail_fast ship" speed="27.78" length="20.80" shape="4810.63,1730.41 4813.29,1724.84 4815.13,1720.99 4817.40,1717.43 4821.34,1712.73"/>
    </edge>
    <edge id=":cluster_964939230_cluster_cluster_964939230_gneJ48_gneJ23_8" function="internal">
        <lane id=":cluster_964939230_cluster_cluster_964939230_gneJ48_gneJ23_8_0" index="0" disallow="tram rail_urban rail rail_electric rail_fast ship" speed="8.90" length="16.61" shape="4810.63,1730.41 4813.37,1726.20 4816.48,1723.65 4819.98,1722.77 4823.85,1723.56"/>
    </edge>
    <edge id=":cluster_964939230_cluster_cluster_964939230_gneJ48_gneJ23_9" function="internal">
        <lane id=":cluster_964939230_cluster_cluster_964939230_gneJ48_gneJ23_9_0" index="0" disallow="tram rail_urban rail rail_electric rail_fast ship" speed="27.78" length="19.94" shape="4813.49,1731.85 4816.03,1726.50 4817.78,1722.80 4819.94,1719.39 4823.71,1714.87"/>
    </edge>
    <edge id=":cluster_964939230_cluster_cluster_964939230_gneJ48_gneJ23_10" function="internal">
        <lane id=":cluster_964939230_cluster_cluster_964939230_gneJ48_gneJ23_10_0" index="0" disallow="tram rail_urban rail rail_electric rail_fast ship" speed="7.58" length="11.79" shape="4813.49,1731.85 4815.48,1728.71 4817.67,1726.78 4820.06,1726.05 4822.67,1726.53"/>
    </edge>

    <edge id="-15874743#0" from="cluster_890670596_gneJ22_gneJ24_gneJ25" to="cluster_964939230_cluster_cluster_964939230_gneJ48_gneJ23" name="бул. Освобождение" priority="11" type="highway.primary" spreadType="center" shape="4555.76,1615.47 4797.37,1716.25">
        <lane id="-15874743#0_0" index="0" disallow="tram rail_urban rail rail_electric rail_fast ship" speed="27.78" length="272.39" shape="4547.20,1608.43 4798.60,1713.30">
            <param key="origId" value="15874743"/>
        </lane>
        <lane id="-15874743#0_1" index="1" disallow="tram rail_urban rail rail_electric rail_fast ship" speed="27.78" length="272.39" shape="4545.97,1611.39 4797.37,1716.25">
            <param key="origId" value="15874743"/>
        </lane>
        <lane id="-15874743#0_2" index="2" disallow="tram rail_urban rail rail_electric rail_fast ship" speed="27.78" length="272.39" shape="4544.74,1614.34 4796.14,1719.20">
            <param key="origId" value="15874743"/>
        </lane>
    </edge>
    <edge id="-305384994#0" from="cluster_964939226_cluster_964939226_gneJ46" to="cluster_890670596_gneJ22_gneJ24_gneJ25" name="бул. Санкт Петербург" priority="11" type="highway.secondary" spreadType="center" shape="4784.06,1752.42 4547.79,1623.20">
        <lane id="-305384994#0_0" index="0" disallow="tram rail_urban rail rail_electric rail_fast ship" speed="27.78" length="276.18" shape="4782.52,1755.23 4540.21,1622.70">
            <param key="origId" value="305384994"/>
        </lane>
        <lane id="-305384994#0_1" index="1" disallow="tram rail_urban rail rail_electric rail_fast ship" speed="27.78" length="276.18" shape="4784.06,1752.42 4541.75,1619.90">
            <param key="origId" value="305384994"/>
        </lane>
        <lane id="-305384994#0_2" index="2" disallow="tram rail_urban rail rail_electric rail_fast ship" speed="27.78" length="276.18" shape="4785.60,1749.61 4543.28,1617.09">
            <param key="origId" value="305384994"/>
        </lane>
        <param key="ref" value="8604"/>
    </edge>
    <edge id="136100518#0" from="159530581" to="1640887613" name="бул. Освобождение" priority="11" type="highway.primary" spreadType="center">
        <lane id="136100518#0_0" index="0" disallow="tram rail_urban rail rail_electric rail_fast ship" speed="27.78" length="67.61" shape="4892.33,1684.87 4856.11,1741.96">
            <param key="origId" value="136100518"/>
        </lane>
        <lane id="136100518#0_1" index="1" disallow="tram rail_urban rail rail_electric rail_fast ship" speed="27.78" length="67.61" shape="4889.63,1683.16 4853.40,1740.24">
            <param key="origId" value="136100518"/>
        </lane>
        <lane id="136100518#0_2" index="2" disallow="tram rail_urban rail rail_electric rail_fast ship" speed="27.78" length="67.61" shape="4886.93,1681.45 4850.70,1738.53">
            <param key="origId" value="136100518"/>
        </lane>
    </edge>
    <edge id="15874743#0" from="cluster_964939230_cluster_cluster_964939230_gneJ48_gneJ23" to="829200677" name="бул. Освобождение" priority="12" type="highway.primary" spreadType="center" shape="4819.47,1714.80 4862.86,1666.72">
        <lane id="15874743#0_0" index="0" disallow="tram rail_urban rail rail_electric rail_fast ship" speed="27.78" length="61.98" shape="4818.96,1710.59 4860.48,1664.58">
            <param key="origId" value="15874743"/>
        </lane>
        <lane id="15874743#0_1" index="1" disallow="tram rail_urban rail rail_electric rail_fast ship" speed="27.78" length="61.98" shape="4821.34,1712.73 4862.86,1666.72">
            <param key="origId" value="15874743"/>
        </lane>
        <lane id="15874743#0_2" index="2" disallow="tram rail_urban rail rail_electric rail_fast ship" speed="27.78" length="61.98" shape="4823.71,1714.87 4865.24,1668.86">
            <param key="origId" value="15874743"/>
        </lane>
    </edge>
    <edge id="39349400#0" from="964939224" to="130237139" name="бул. Освобождение" priority="1" type="highway.primary" spreadType="center">
        <lane id="39349400#0_0" index="0" disallow="tram rail_urban rail rail_electric rail_fast ship" speed="27.78" length="86.91" shape="4836.59,1776.02 4787.75,1847.90">
            <param key="origId" value="39349400"/>
        </lane>
        <lane id="39349400#0_1" index="1" disallow="tram rail_urban rail rail_electric rail_fast ship" speed="27.78" length="86.91" shape="4833.95,1774.22 4785.10,1846.10">
            <param key="origId" value="39349400"/>
        </lane>
        <lane id="39349400#0_2" index="2" disallow="tram rail_urban rail rail_electric rail_fast ship" speed="27.78" length="86.91" shape="4831.30,1772.42 4782.45,1844.30">
            <param key="origId" value="39349400"/>
        </lane>
    </edge>
    <edge id="69119564#2" from="cluster_3089090057_3090486097" to="829200655" name="бул. Освобождение" priority="12" type="highway.primary" spreadType="center" shape="4766.80,1835.29 4782.68,1789.93">
        <lane id="69119564#2_0" index="0" disallow="tram rail_urban rail rail_electric rail_fast ship" speed="27.78" length="50.86" shape="4762.79,1837.06 4779.60,1789.05">
            <param key="origId" value="69119564"/>
        </lane>
        <lane id="69119564#2_1" index="1" disallow="tram rail_urban rail rail_electric rail_fast ship" speed="27.78" length="50.86" shape="4765.81,1838.11 4782.62,1790.11">
            <param key="origId" value="69119564"/>
        </lane>
        <lane id="69119564#2_2" index="2" disallow="tram rail_urban rail rail_electric rail_fast ship" speed="27.78" length="50.86" shape="4768.83,1839.17 4785.64,1791.17">
            <param key="origId" value="69119564"/>
        </lane>
        <param key="origFrom" value="3089090057"/>
    </edge>
    <edge id="69119564#3" from="829200655" to="cluster_964939226_cluster_964939226_gneJ46" name="бул. Освобождение" priority="11" type="highway.primary" spreadType="center" shape="4782.68,1789.93 4794.61,1762.91">
        <lane id="69119564#3_0" index="0" disallow="tram rail_urban rail rail_electric rail_fast ship" speed="27.78" length="25.42" shape="4779.83,1788.46 4790.10,1765.21">
            <param key="origId" value="69119564"/>
        </lane>
        <lane id="69119564#3_1" index="1" disallow="tram rail_urban rail rail_electric rail_fast ship" speed="27.78" length="25.42" shape="4782.76,1789.76 4793.02,1766.50">
            <param key="origId" value="69119564"/>
        </lane>
        <lane id="69119564#3_2" index="2" disallow="tram rail_urban rail rail_electric rail_fast ship" speed="27.78" length="25.42" shape="4785.68,1791.05 4795.95,1767.80">
            <param key="origId" value="69119564"/>
        </lane>
    </edge>
    <edge id="694407544" from="964939224" to="cluster_964939226_cluster_964939226_gneJ46" priority="12" type="highway.secondary" spreadType="center" shape="4841.39,1763.27 4832.70,1764.74 4825.41,1765.59 4818.52,1765.22 4810.47,1762.80 4796.80,1756.96">
        <lane id="694407544_0" index="0" disallow="tram rail_urban rail rail_electric rail_fast ship" speed="27.78" length="23.84" shape="4828.79,1768.42 4825.51,1768.80 4817.97,1768.39 4809.38,1765.81 4803.99,1763.51">
            <param key="origId" value="694407544"/>
        </lane>
        <lane id="694407544_1" index="1" disallow="tram rail_urban rail rail_electric rail_fast ship" speed="27.78" length="23.84" shape="4828.25,1765.26 4825.41,1765.59 4818.52,1765.22 4810.47,1762.80 4805.25,1760.57">
            <param key="origId" value="694407544"/>
        </lane>
        <lane id="694407544_2" index="2" disallow="tram rail_urban rail rail_electric rail_fast ship" speed="27.78" length="23.84" shape="4827.72,1762.10 4825.31,1762.38 4819.07,1762.05 4811.56,1759.79 4806.51,1757.63">
            <param key="origId" value="694407544"/>
        </lane>
        <param key="ref" value="8604"/>
    </edge>
    <edge id="694407545" from="1640887613" to="964939224" priority="12" type="highway.primary" spreadType="center">
        <lane id="694407545_0" index="0" disallow="tram rail_urban rail rail_electric rail_fast ship" speed="27.78" length="6.83" shape="4849.01,1754.03 4846.23,1760.26">
            <param key="origId" value="694407545"/>
        </lane>
        <lane id="694407545_1" index="1" disallow="tram rail_urban rail rail_electric rail_fast ship" speed="27.78" length="6.83" shape="4846.09,1752.73 4843.31,1758.96">
            <param key="origId" value="694407545"/>
        </lane>
        <lane id="694407545_2" index="2" disallow="tram rail_urban rail rail_electric rail_fast ship" speed="27.78" length="6.83" shape="4843.16,1751.42 4840.39,1757.66">
            <param key="origId" value="694407545"/>
        </lane>
    </edge>
    <edge id="694407546" from="cluster_964939226_cluster_964939226_gneJ46" to="cluster_964939230_cluster_cluster_964939230_gneJ48_gneJ23" priority="12" type="highway.primary" spreadType="center" shape="4800.41,1750.69 4813.05,1725.61">
        <lane id="694407546_0" index="0" disallow="tram rail_urban rail rail_electric rail_fast ship" speed="27.78" length="21.12" shape="4798.27,1747.83 4807.77,1728.97">
            <param key="origId" value="694407546"/>
        </lane>
        <lane id="694407546_1" index="1" disallow="tram rail_urban rail rail_electric rail_fast ship" speed="27.78" length="21.12" shape="4801.13,1749.27 4810.63,1730.41">
            <param key="origId" value="694407546"/>
        </lane>
        <lane id="694407546_2" index="2" disallow="tram rail_urban rail rail_electric rail_fast ship" speed="27.78" length="21.12" shape="4803.98,1750.71 4813.49,1731.85">
            <param key="origId" value="694407546"/>
        </lane>
    </edge>
    <edge id="82914449" from="cluster_964939230_cluster_cluster_964939230_gneJ48_gneJ23" to="1640887613" priority="12" type="highway.secondary" spreadType="center" shape="4815.70,1720.30 4828.47,1725.40 4835.37,1729.22 4840.57,1734.13 4843.70,1739.71 4847.51,1749.53">
        <lane id="82914449_0" index="0" disallow="tram rail_urban rail rail_electric rail_fast ship" speed="27.78" length="25.94" shape="4825.04,1720.58 4829.84,1722.50 4837.27,1726.62 4843.12,1732.14 4846.48,1738.13">
            <param key="origId" value="82914449"/>
        </lane>
        <lane id="82914449_1" index="1" disallow="tram rail_urban rail rail_electric rail_fast ship" speed="27.78" length="25.94" shape="4823.85,1723.56 4828.47,1725.40 4835.37,1729.22 4840.57,1734.13 4843.47,1739.30">
            <param key="origId" value="82914449"/>
        </lane>
        <lane id="82914449_2" index="2" disallow="tram rail_urban rail rail_electric rail_fast ship" speed="27.78" length="25.94" shape="4822.67,1726.53 4827.10,1728.30 4833.47,1731.82 4838.02,1736.12 4840.46,1740.47">
            <param key="origId" value="82914449"/>
        </lane>
        <param key="ref" value="8604"/>
    </edge>

    <junction id="130237139" type="dead_end" x="4785.10" y="1846.10" incLanes="39349400#0_0 39349400#0_1 39349400#0_2" intLanes="" shape="4789.07,1848.80 4781.13,1843.40"/>
    <junction id="159530581" type="dead_end" x="4889.63" y="1683.16" incLanes="" intLanes="" shape="4885.58,1680.59 4893.68,1685.73"/>
    <junction id="1640887613" type="priority" x="4847.51" y="1749.53" incLanes="136100518#0_0 136100518#0_1 136100518#0_2 82914449_0 82914449_1 82914449_2" intLanes=":1640887613_0_0 :1640887613_0_1 :1640887613_0_2 :1640887613_3_0 :1640887613_3_1 :1640887613_3_2" shape="4857.46,1742.81 4849.35,1737.67 4848.90,1738.14 4848.67,1738.18 4848.44,1738.09 4848.22,1737.88 4847.99,1737.55 4838.95,1741.06 4840.12,1743.28 4841.01,1745.26 4841.61,1747.00 4841.93,1748.50 4841.96,1749.76 4841.70,1750.77 4850.47,1754.68 4851.71,1752.02 4852.71,1750.10 4853.63,1748.57 4854.63,1747.08 4855.85,1745.27">
        <request index="0" response="111000" foes="111000" cont="0"/>
        <request index="1" response="111000" foes="111000" cont="0"/>
        <request index="2" response="111000" foes="111000" cont="0"/>
        <request index="3" response="000000" foes="000111" cont="0"/>
        <request index="4" response="000000" foes="000111" cont="0"/>
        <request index="5" response="000000" foes="000111" cont="0"/>
        <param key="keepClear" value="0"/>
    </junction>
    <junction id="829200655" type="priority" x="4782.68" y="1789.93" incLanes="69119564#2_0 69119564#2_1 69119564#2_2" intLanes=":829200655_0_0 :829200655_0_1 :829200655_0_2" shape="4787.15,1791.70 4778.37,1787.82 4778.09,1788.52">
        <request index="0" response="000" foes="000" cont="0"/>
        <request index="1" response="000" foes="000" cont="0"/>
        <request index="2" response="000" foes="000" cont="0"/>
    </junction>
    <junction id="829200677" type="dead_end" x="4862.86" y="1666.72" incLanes="15874743#0_0 15874743#0_1 15874743#0_2" intLanes="" shape="4859.30,1663.50 4866.42,1669.94"/>