<?xml version="1.0" encoding="UTF-8"?>

<!-- generated on 2023-01-01 21:22:10 by Eclipse SUMO netedit Version 1.10.0
<configuration xmlns:xsi="http://www.w3.org/2001/XMLSchema-instance" xsi:noNamespaceSchemaLocation="http://sumo.dlr.de/xsd/netconvertConfiguration.xsd">

    <input>
        <sumo-net-file value="Sim/net/SktPR.net.xml"/>
    </input>

    <output>
        <output-file value="Sim/net/SktPR.net.xml"/>
        <output.street-names value="true"/>
    </output>

    <processing>
        <geometry.min-radius.fix.railways value="false"/>
        <geometry.max-grade.fix value="false"/>
        <offset.disable-normalization value="true"/>
        <lefthand value="false"/>
    </processing>

    <junctions>
        <no-turnarounds value="true"/>
        <junctions.corner-detail value="5"/>
        <junctions.limit-turn-speed value="5.5"/>
        <rectangular-lane-cut value="false"/>
    </junctions>

    <pedestrian>
        <walkingareas value="false"/>
    </pedestrian>

    <report>
        <aggregate-warnings value="5"/>
    </report>

</configuration>
-->

<net version="1.9" junctionCornerDetail="5" limitTurnSpeed="5.50" xmlns:xsi="http://www.w3.org/2001/XMLSchema-instance" xsi:noNamespaceSchemaLocation="http://sumo.dlr.de/xsd/net_file.xsd">

    <location netOffset="-312195.61,-4666326.23" convBoundary="3445.77,1111.90,4543.45,1613.81" origBoundary="24.725718,42.117759,24.792474,42.155549" projParameter="+proj=utm +zone=35 +ellps=WGS84 +datum=WGS84 +units=m +no_defs"/>

    <type id="highway.bridleway" priority="1" numLanes="1" speed="2.78" allow="pedestrian" oneway="1" width="2.00"/>
    <type id="highway.bus_guideway" priority="1" numLanes="1" speed="27.78" allow="bus" oneway="1"/>
    <type id="highway.cycleway" priority="1" numLanes="1" speed="8.33" allow="bicycle" oneway="1" width="1.00"/>
    <type id="highway.footway" priority="1" numLanes="1" speed="2.78" allow="pedestrian" oneway="1" width="2.00"/>
    <type id="highway.ford" priority="1" numLanes="1" speed="2.78" allow="army" oneway="1"/>
    <type id="highway.living_street" priority="2" numLanes="1" speed="2.78" disallow="tram rail_urban rail rail_electric rail_fast ship" oneway="1"/>
    <type id="highway.motorway" priority="14" numLanes="2" speed="39.44" allow="private emergency authority army vip passenger hov taxi bus coach delivery truck trailer motorcycle evehicle custom1 custom2" oneway="1"/>
    <type id="highway.motorway_link" priority="9" numLanes="1" speed="22.22" allow="private emergency authority army vip passenger hov taxi bus coach delivery truck trailer motorcycle evehicle custom1 custom2" oneway="1"/>
    <type id="highway.path" priority="1" numLanes="1" speed="2.78" allow="pedestrian bicycle" oneway="1" width="2.00"/>
    <type id="highway.pedestrian" priority="1" numLanes="1" speed="2.78" allow="pedestrian" oneway="1" width="2.00"/>
    <type id="highway.primary" priority="12" numLanes="2" speed="27.78" disallow="tram rail_urban rail rail_electric rail_fast ship" oneway="1"/>
    <type id="highway.primary_link" priority="7" numLanes="1" speed="22.22" disallow="tram rail_urban rail rail_electric rail_fast ship" oneway="1"/>
    <type id="highway.raceway" priority="15" numLanes="2" speed="83.33" allow="vip" oneway="1"/>
    <type id="highway.residential" priority="3" numLanes="1" speed="13.89" disallow="tram rail_urban rail rail_electric rail_fast ship" oneway="1"/>
    <type id="highway.secondary" priority="11" numLanes="1" speed="27.78" disallow="tram rail_urban rail rail_electric rail_fast ship" oneway="1"/>
    <type id="highway.secondary_link" priority="6" numLanes="1" speed="22.22" disallow="tram rail_urban rail rail_electric rail_fast ship" oneway="1"/>
    <type id="highway.service" priority="1" numLanes="1" speed="5.56" allow="pedestrian delivery bicycle" oneway="1"/>
    <type id="highway.stairs" priority="1" numLanes="1" speed="1.39" allow="pedestrian" oneway="1" width="2.00"/>
    <type id="highway.step" priority="1" numLanes="1" speed="1.39" allow="pedestrian" oneway="1" width="2.00"/>
    <type id="highway.steps" priority="1" numLanes="1" speed="1.39" allow="pedestrian" oneway="1" width="2.00"/>
    <type id="highway.tertiary" priority="10" numLanes="1" speed="22.22" disallow="tram rail_urban rail rail_electric rail_fast ship" oneway="1"/>
    <type id="highway.tertiary_link" priority="5" numLanes="1" speed="22.22" disallow="tram rail_urban rail rail_electric rail_fast ship" oneway="1"/>
    <type id="highway.track" priority="1" numLanes="1" speed="5.56" allow="pedestrian motorcycle moped bicycle" oneway="1"/>
    <type id="highway.trunk" priority="13" numLanes="2" speed="27.78" disallow="pedestrian bicycle tram rail_urban rail rail_electric rail_fast ship" oneway="1"/>
    <type id="highway.trunk_link" priority="8" numLanes="1" speed="22.22" disallow="pedestrian bicycle tram rail_urban rail rail_electric rail_fast ship" oneway="1"/>
    <type id="highway.unclassified" priority="4" numLanes="1" speed="13.89" disallow="tram rail_urban rail rail_electric rail_fast ship" oneway="1"/>
    <type id="highway.unsurfaced" priority="1" numLanes="1" speed="8.33" disallow="tram rail_urban rail rail_electric rail_fast ship" oneway="1"/>
    <type id="railway.highspeed" priority="21" numLanes="1" speed="69.44" allow="rail_fast" oneway="1"/>
    <type id="railway.light_rail" priority="19" numLanes="1" speed="27.78" allow="rail_urban" oneway="1"/>
    <type id="railway.preserved" priority="16" numLanes="1" speed="27.78" allow="rail" oneway="1"/>
    <type id="railway.rail" priority="20" numLanes="1" speed="44.44" allow="rail" oneway="1"/>
    <type id="railway.subway" priority="18" numLanes="1" speed="27.78" allow="rail_urban" oneway="1"/>
    <type id="railway.tram" priority="17" numLanes="1" speed="13.89" allow="tram" oneway="1"/>

    <edge id=":890670596_0" function="internal">
        <lane id=":890670596_0_0" index="0" disallow="tram rail_urban rail rail_electric rail_fast ship" speed="27.78" length="0.27" shape="3871.45,1291.11 3871.78,1291.26"/>
        <lane id=":890670596_0_1" index="1" disallow="tram rail_urban rail rail_electric rail_fast ship" speed="27.78" length="0.27" shape="3870.17,1294.05 3870.42,1294.16"/>
        <lane id=":890670596_0_2" index="2" disallow="tram rail_urban rail rail_electric rail_fast ship" speed="27.78" length="0.27" shape="3868.89,1296.98 3869.07,1297.06"/>
    </edge>

    <edge id="-230878791#2" from="gneJ5" to="gneJ4" name="бул. Санкт Петербург" priority="11" type="highway.secondary" spreadType="center">
        <lane id="-230878791#2_0" index="0" disallow="tram rail_urban rail rail_electric rail_fast ship" speed="27.78" length="1189.22" shape="4530.01,1616.73 3444.46,1131.10">
            <param key="origId" value="230878791"/>
        </lane>
        <lane id="-230878791#2_1" index="1" disallow="tram rail_urban rail rail_electric rail_fast ship" speed="27.78" length="1189.22" shape="4531.32,1613.81 3445.77,1128.18">
            <param key="origId" value="230878791"/>
        </lane>
        <lane id="-230878791#2_2" index="2" disallow="tram rail_urban rail rail_electric rail_fast ship" speed="27.78" length="1189.22" shape="4532.63,1610.89 3447.08,1125.26">
            <param key="origId" value="230878791"/>
        </lane>
        <param key="origFrom" value="890670596"/>
        <param key="ref" value="8604"/>
    </edge>
    <edge id="230878791#0" from="cluster_829171827_890670350" to="890670596" name="бул. Санкт Петербург" priority="11" type="highway.secondary" spreadType="center" shape="3454.53,1111.90 3471.23,1119.01 3702.38,1220.77 3870.30,1294.10">
        <lane id="230878791#0_0" index="0" disallow="tram rail_urban rail rail_electric rail_fast ship" speed="27.78" length="454.06" shape="3455.55,1108.85 3472.50,1116.07 3703.66,1217.84 3871.45,1291.11">
            <param key="origId" value="230878791"/>
        </lane>
        <lane id="230878791#0_1" index="1" disallow="tram rail_urban rail rail_electric rail_fast ship" speed="27.78" length="454.06" shape="3454.29,1111.80 3471.23,1119.01 3702.38,1220.77 3870.17,1294.05">
            <param key="origId" value="230878791"/>
        </lane>
        <lane id="230878791#0_2" index="2" disallow="tram rail_urban rail rail_electric rail_fast ship" speed="27.78" length="454.06" shape="3453.04,1114.74 3469.96,1121.95 3701.10,1223.70 3868.89,1296.98">
            <param key="origId" value="230878791"/>
        </lane>
        <param key="origFrom" value="890670350"/>
        <param key="origTo" value="890670596"/>
        <param key="ref" value="8604"/>
    </edge>
    <edge id="230878791#2" from="890670596" to="gneJ6" name="бул. Санкт Петербург" priority="11" type="highway.secondary" spreadType="center" shape="3870.30,1294.10 3932.45,1323.16 4543.45,1606.41">
        <lane id="230878791#2_0" index="0" disallow="tram rail_urban rail rail_electric rail_fast ship" speed="27.78" length="741.93" shape="3871.78,1291.26 3933.80,1320.26 4544.80,1603.51">
            <param key="origId" value="230878791"/>
        </lane>
        <lane id="230878791#2_1" index="1" disallow="tram rail_urban rail rail_electric rail_fast ship" speed="27.78" length="741.93" shape="3870.42,1294.16 3932.45,1323.16 4543.45,1606.41">
            <param key="origId" value="230878791"/>
        </lane>
        <lane id="230878791#2_2" index="2" disallow="tram rail_urban rail rail_electric rail_fast ship" speed="27.78" length="741.93" shape="3869.07,1297.06 3931.10,1326.06 4542.10,1609.31">
            <param key="origId" value="230878791"/>
        </lane>
        <param key="origFrom" value="890670596"/>
        <param key="ref" value="8604"/>
    </edge>

    <junction id="890670596" type="priority" x="3870.30" y="1294.10" incLanes="230878791#0_0 230878791#0_1 230878791#0_2" intLanes=":890670596_0_0 :890670596_0_1 :890670596_0_2" shape="3868.39,1298.51 3872.46,1289.81 3872.10,1289.65 3868.25,1298.44">
        <request index="0" response="000" foes="000" cont="0"/>
        <request index="1" response="000" foes="000" cont="0"/>
        <request index="2" response="000" foes="000" cont="0"/>
    </junction>
    <junction id="cluster_829171827_890670350" type="dead_end" x="3452.06" y="1117.04" incLanes="" intLanes="" shape="3452.41,1116.21 3456.17,1107.38"/>
    <junction id="gneJ4" type="dead_end" x="3445.77" y="1128.18" incLanes="-230878791#2_0 -230878791#2_1 -230878791#2_2" intLanes="" shape="3443.81,1132.56 3447.73,1123.80"/>
    <junction id="gneJ5" type="dead_end" x="4531.32" y="1613.81" incLanes="" intLanes="" shape="4533.28,1609.43 4529.36,1618.19"/>
    <junction id="gneJ6" type="dead_end" x="4543.45" y="1606.41" incLanes="230878791#2_0 230878791#2_1 230878791#2_2" intLanes="" shape="4545.47,1602.06 4541.43,1610.76"/>

    <connection from="230878791#0" to="230878791#2" fromLane="0" toLane="0" via=":890670596_0_0" dir="s" state="M"/>
    <connection from="230878791#0" to="230878791#2" fromLane="1" toLane="1" via=":890670596_0_1" dir="s" state="M"/>
    <connection from="230878791#0" to="230878791#2" fromLane="2" toLane="2" via=":890670596_0_2" dir="s" state="M"/>

    <connection from=":890670596_0" to="230878791#2" fromLane="0" toLane="0" dir="s" state="M"/>
    <connection from=":890670596_0" to="230878791#2" fromLane="1" toLane="1" dir="s" state="M"/>
    <connection from=":890670596_0" to="230878791#2" fromLane="2" toLane="2" dir="s" state="M"/>

</net>
