<?xml version="1.0" encoding="UTF-8"?>

<!-- generated on 2023-01-01 16:14:08 by Eclipse SUMO duarouter Version 1.10.0
<configuration xmlns:xsi="http://www.w3.org/2001/XMLSchema-instance" xsi:noNamespaceSchemaLocation="http://sumo.dlr.de/xsd/duarouterConfiguration.xsd">

    <input>
        <net-file value="/home/tedy/Sumo/script/Min-Plus/Sim/net/Mend-SktP.net.xml"/>
        <route-files value="/home/tedy/Sumo/script/Min-Plus/NCOut/Routes/Mend-SktP/0.8t.xml"/>
    </input>

    <output>
        <output-file value="routes.rou.xml"/>
        <alternatives-output value="routes.rou.alt.xml"/>
    </output>

    <time>
        <begin value="0"/>
        <end value="3600"/>
    </time>

    <report>
        <no-warnings value="true"/>
        <ignore-errors value="true"/>
        <no-step-log value="true"/>
    </report>

</configuration>
-->

<routes xmlns:xsi="http://www.w3.org/2001/XMLSchema-instance" xsi:noNamespaceSchemaLocation="http://sumo.dlr.de/xsd/routes_file.xsd">
    <vehicle id="0" depart="0.00">
        <route edges="230878792#1 136100505#0"/>
    </vehicle>
    <vehicle id="1" depart="0.80">
        <route edges="136100522#1"/>
    </vehicle>
    <vehicle id="3" depart="2.40">
        <route edges="81371106#1 136100505#0"/>
    </vehicle>
    <vehicle id="9" depart="7.20">
        <route edges="25625330#0 136100505#0"/>
    </vehicle>
    <vehicle id="12" depart="9.60">
        <route edges="81371106#1 136100525#1"/>
    </vehicle>
    <vehicle id="13" depart="10.40">
        <route edges="136100505#0"/>
    </vehicle>
    <vehicle id="20" depart="16.00">
        <route edges="230878792#1 136100505#0"/>
    </vehicle>
    <vehicle id="21" depart="16.80">
        <route edges="136100522#1"/>
    </vehicle>
    <vehicle id="24" depart="19.20">
        <route edges="230878792#1 136100525#1"/>
    </vehicle>
    <vehicle id="27" depart="21.60">
        <route edges="230878792#1"/>
    </vehicle>
    <vehicle id="36" depart="28.80">
        <route edges="81371106#1 136100525#1"/>
    </vehicle>
    <vehicle id="37" depart="29.60">
        <route edges="230878792#1 136100525#1"/>
    </vehicle>
    <vehicle id="38" depart="30.40">
        <route edges="81371106#1 136100525#1 136100525#3-AddedOnRampEdge"/>
    </vehicle>
    <vehicle id="39" depart="31.20">
        <route edges="136100522#1"/>
    </vehicle>
    <vehicle id="40" depart="32.00">
        <route edges="161137081#1 136100522#1"/>
    </vehicle>
    <vehicle id="44" depart="35.20">
        <route edges="136100505#0"/>
    </vehicle>
    <vehicle id="46" depart="36.80">
        <route edges="25625330#0 136100525#1 136100525#3-AddedOnRampEdge"/>
    </vehicle>
    <vehicle id="55" depart="44.00">
        <route edges="81371106#1 136100522#1"/>
    </vehicle>
    <vehicle id="56" depart="44.80">
        <route edges="161137081#1 136100509"/>
    </vehicle>
    <vehicle id="57" depart="45.60">
        <route edges="81371106#1"/>
    </vehicle>
    <vehicle id="59" depart="47.20">
        <route edges="230878792#1 136100509"/>
    </vehicle>
    <vehicle id="66" depart="52.80">
        <route edges="81371106#1"/>
    </vehicle>
    <vehicle id="69" depart="55.20">
        <route edges="25625330#0 136100505#0"/>
    </vehicle>
    <vehicle id="79" depart="63.20">
        <route edges="136100522#1"/>
    </vehicle>
    <vehicle id="87" depart="69.60">
        <route edges="25625330#0 136100509"/>
    </vehicle>
    <vehicle id="89" depart="71.20">
        <route edges="136100525#3-AddedOnRampEdge"/>
    </vehicle>
    <vehicle id="90" depart="72.00">
        <route edges="230878792#1"/>
    </vehicle>
    <vehicle id="91" depart="72.80">
        <route edges="81371106#1 136100505#0"/>
    </vehicle>
    <vehicle id="100" depart="80.00">
        <route edges="81371106#1"/>
    </vehicle>
    <vehicle id="106" depart="84.80">
        <route edges="136100525#3-AddedOnRampEdge"/>
    </vehicle>
    <vehicle id="107" depart="85.60">
        <route edges="81371106#1"/>
    </vehicle>
    <vehicle id="118" depart="94.40">
        <route edges="81371106#1 136100522#1"/>
    </vehicle>
    <vehicle id="124" depart="99.20">
        <route edges="230878792#1 136100522#1"/>
    </vehicle>
    <vehicle id="127" depart="101.60">
        <route edges="81371106#1"/>
    </vehicle>
    <vehicle id="130" depart="104.00">
        <route edges="81371106#1"/>
    </vehicle>
    <vehicle id="134" depart="107.20">
        <route edges="230878792#1 136100505#0"/>
    </vehicle>
    <vehicle id="135" depart="108.00">
        <route edges="25625330#0 136100522#1"/>
    </vehicle>
    <vehicle id="140" depart="112.00">
        <route edges="230878792#1 136100522#1"/>
    </vehicle>
    <vehicle id="141" depart="112.80">
        <route edges="230878792#1 136100522#1"/>
    </vehicle>
    <vehicle id="146" depart="116.80">
        <route edges="230878792#1 136100522#1"/>
    </vehicle>
    <vehicle id="155" depart="124.00">
        <route edges="81371106#1 136100522#1"/>
    </vehicle>
    <vehicle id="165" depart="132.00">
        <route edges="25625330#0 136100522#1"/>
    </vehicle>
    <vehicle id="166" depart="132.80">
        <route edges="25625330#0 136100505#0"/>
    </vehicle>
    <vehicle id="170" depart="136.00">
        <route edges="25625330#0 136100522#1"/>
    </vehicle>
    <vehicle id="173" depart="138.40">
        <route edges="81371106#1 136100522#1"/>
    </vehicle>
    <vehicle id="174" depart="139.20">
        <route edges="230878792#1 136100525#1"/>
    </vehicle>
    <vehicle id="176" depart="140.80">
        <route edges="81371106#1 136100505#0"/>
    </vehicle>
    <vehicle id="177" depart="141.60">
        <route edges="81371106#1 136100509"/>
    </vehicle>
    <vehicle id="178" depart="142.40">
        <route edges="81371106#1 136100522#1"/>
    </vehicle>
    <vehicle id="180" depart="144.00">
        <route edges="230878792#1 136100525#1"/>
    </vehicle>
    <vehicle id="188" depart="150.40">
        <route edges="230878792#1 136100525#1"/>
    </vehicle>
    <vehicle id="190" depart="152.00">
        <route edges="230878792#1 136100525#1"/>
    </vehicle>
    <vehicle id="191" depart="152.80">
        <route edges="136100525#1 136100525#3-AddedOnRampEdge"/>
    </vehicle>
    <vehicle id="199" depart="159.20">
        <route edges="230878792#1 136100525#1 136100525#3-AddedOnRampEdge"/>
    </vehicle>
    <vehicle id="202" depart="161.60">
        <route edges="25625330#0 136100509"/>
    </vehicle>
    <vehicle id="204" depart="163.20">
        <route edges="230878792#1 136100525#1"/>
    </vehicle>
    <vehicle id="205" depart="164.00">
        <route edges="25625330#0"/>
    </vehicle>
    <vehicle id="206" depart="164.80">
        <route edges="230878792#1 136100522#1"/>
    </vehicle>
    <vehicle id="213" depart="170.40">
        <route edges="230878792#1 136100505#0"/>
    </vehicle>
    <vehicle id="214" depart="171.20">
        <route edges="25625330#0"/>
    </vehicle>
    <vehicle id="229" depart="183.20">
        <route edges="230878792#1 136100522#1"/>
    </vehicle>
    <vehicle id="232" depart="185.60">
        <route edges="161137081#1 136100509"/>
    </vehicle>
    <vehicle id="234" depart="187.20">
        <route edges="230878792#1 136100505#0"/>
    </vehicle>
    <vehicle id="245" depart="196.00">
        <route edges="136100522#1"/>
    </vehicle>
    <vehicle id="250" depart="200.00">
        <route edges="230878792#1 136100505#0"/>
    </vehicle>
    <vehicle id="256" depart="204.80">
        <route edges="25625330#0 136100525#1"/>
    </vehicle>
    <vehicle id="257" depart="205.60">
        <route edges="25625330#0"/>
    </vehicle>
    <vehicle id="260" depart="208.00">
        <route edges="81371106#1 136100525#1"/>
    </vehicle>
    <vehicle id="263" depart="210.40">
        <route edges="81371106#1 136100509"/>
    </vehicle>
    <vehicle id="266" depart="212.80">
        <route edges="161137081#1 136100522#1"/>
    </vehicle>
    <vehicle id="269" depart="215.20">
        <route edges="25625330#0 136100505#0"/>
    </vehicle>
    <vehicle id="271" depart="216.80">
        <route edges="136100505#0"/>
    </vehicle>
    <vehicle id="273" depart="218.40">
        <route edges="81371106#1 136100525#1"/>
    </vehicle>
    <vehicle id="274" depart="219.20">
        <route edges="230878792#1 136100505#0"/>
    </vehicle>
    <vehicle id="275" depart="220.00">
        <route edges="230878792#1"/>
    </vehicle>
    <vehicle id="279" depart="223.20">
        <route edges="25625330#0 136100525#1"/>
    </vehicle>
    <vehicle id="285" depart="228.00">
        <route edges="230878792#1 136100525#1 136100525#3-AddedOnRampEdge"/>
    </vehicle>
    <vehicle id="291" depart="232.80">
        <route edges="25625330#0 136100505#0"/>
    </vehicle>
    <vehicle id="292" depart="233.60">
        <route edges="81371106#1 136100522#1"/>
    </vehicle>
    <vehicle id="298" depart="238.40">
        <route edges="230878792#1 136100522#1"/>
    </vehicle>
    <vehicle id="302" depart="241.60">
        <route edges="230878792#1"/>
    </vehicle>
    <vehicle id="305" depart="244.00">
        <route edges="230878792#1 136100525#1"/>
    </vehicle>
    <vehicle id="308" depart="246.40">
        <route edges="25625330#0 136100525#1"/>
    </vehicle>
    <vehicle id="309" depart="247.20">
        <route edges="230878792#1 136100522#1"/>
    </vehicle>
    <vehicle id="319" depart="255.20">
        <route edges="161137081#1 136100522#1"/>
    </vehicle>
    <vehicle id="321" depart="256.80">
        <route edges="230878792#1 136100505#0"/>
    </vehicle>
    <vehicle id="322" depart="257.60">
        <route edges="81371106#1 136100525#1 136100525#3-AddedOnRampEdge"/>
    </vehicle>
    <vehicle id="324" depart="259.20">
        <route edges="136100525#3-AddedOnRampEdge"/>
    </vehicle>
    <vehicle id="326" depart="260.80">
        <route edges="81371106#1 136100525#1 136100525#3-AddedOnRampEdge"/>
    </vehicle>
    <vehicle id="327" depart="261.60">
        <route edges="25625330#0 136100525#1 136100525#3-AddedOnRampEdge"/>
    </vehicle>
    <vehicle id="331" depart="264.80">
        <route edges="81371106#1 136100505#0"/>
    </vehicle>
    <vehicle id="333" depart="266.40">
        <route edges="25625330#0 136100522#1"/>
    </vehicle>
    <vehicle id="336" depart="268.80">
        <route edges="81371106#1 136100525#1"/>
    </vehicle>
    <vehicle id="337" depart="269.60">
        <route edges="230878792#1"/>
    </vehicle>
    <vehicle id="339" depart="271.20">
        <route edges="136100522#1"/>
    </vehicle>
    <vehicle id="340" depart="272.00">
        <route edges="230878792#1 136100509"/>
    </vehicle>
    <vehicle id="343" depart="274.40">
        <route edges="161137081#1 136100522#1"/>
    </vehicle>
    <vehicle id="345" depart="276.00">
        <route edges="230878792#1 136100525#1 136100525#3-AddedOnRampEdge"/>
    </vehicle>
    <vehicle id="351" depart="280.80">
        <route edges="25625330#0 136100505#0"/>
    </vehicle>
    <vehicle id="355" depart="284.00">
        <route edges="230878792#1"/>
    </vehicle>
    <vehicle id="362" depart="289.60">
        <route edges="81371106#1"/>
    </vehicle>
    <vehicle id="363" depart="290.40">
        <route edges="230878792#1 136100522#1"/>
    </vehicle>
    <vehicle id="366" depart="292.80">
        <route edges="81371106#1 136100509"/>
    </vehicle>
    <vehicle id="369" depart="295.20">
        <route edges="136100525#1"/>
    </vehicle>
    <vehicle id="381" depart="304.80">
        <route edges="25625330#0 136100522#1"/>
    </vehicle>
    <vehicle id="385" depart="308.00">
        <route edges="230878792#1 136100522#1"/>
    </vehicle>
    <vehicle id="388" depart="310.40">
        <route edges="81371106#1"/>
    </vehicle>
    <vehicle id="390" depart="312.00">
        <route edges="25625330#0 136100525#1 136100525#3-AddedOnRampEdge"/>
    </vehicle>
    <vehicle id="393" depart="314.40">
        <route edges="81371106#1 136100522#1"/>
    </vehicle>
    <vehicle id="400" depart="320.00">
        <route edges="136100522#1"/>
    </vehicle>
    <vehicle id="404" depart="323.20">
        <route edges="161137081#1"/>
    </vehicle>
    <vehicle id="407" depart="325.60">
        <route edges="161137081#1 136100522#1"/>
    </vehicle>
    <vehicle id="408" depart="326.40">
        <route edges="25625330#0 136100505#0"/>
    </vehicle>
    <vehicle id="410" depart="328.00">
        <route edges="25625330#0 136100525#1"/>
    </vehicle>
    <vehicle id="412" depart="329.60">
        <route edges="81371106#1 136100525#1 136100525#3-AddedOnRampEdge"/>
    </vehicle>
    <vehicle id="415" depart="332.00">
        <route edges="81371106#1 136100525#1 136100525#3-AddedOnRampEdge"/>
    </vehicle>
    <vehicle id="417" depart="333.60">
        <route edges="230878792#1 136100525#1 136100525#3-AddedOnRampEdge"/>
    </vehicle>
    <vehicle id="418" depart="334.40">
        <route edges="230878792#1 136100509"/>
    </vehicle>
    <vehicle id="422" depart="337.60">
        <route edges="67673623#0"/>
    </vehicle>
    <vehicle id="423" depart="338.40">
        <route edges="136100525#1"/>
    </vehicle>
    <vehicle id="425" depart="340.00">
        <route edges="81371106#1 136100505#0"/>
    </vehicle>
    <vehicle id="427" depart="341.60">
        <route edges="81371106#1"/>
    </vehicle>
    <vehicle id="428" depart="342.40">
        <route edges="25625330#0 136100525#1 136100525#3-AddedOnRampEdge"/>
    </vehicle>
    <vehicle id="430" depart="344.00">
        <route edges="81371106#1 136100525#1 136100525#3-AddedOnRampEdge"/>
    </vehicle>
    <vehicle id="440" depart="352.00">
        <route edges="136100522#1"/>
    </vehicle>
    <vehicle id="445" depart="356.00">
        <route edges="230878792#1 136100525#1 136100525#3-AddedOnRampEdge"/>
    </vehicle>
    <vehicle id="449" depart="359.20">
        <route edges="161137081#1"/>
    </vehicle>
    <vehicle id="450" depart="360.00">
        <route edges="81371106#1 136100522#1"/>
    </vehicle>
    <vehicle id="457" depart="365.60">
        <route edges="230878792#1 136100525#1"/>
    </vehicle>
    <vehicle id="458" depart="366.40">
        <route edges="230878792#1"/>
    </vehicle>
    <vehicle id="459" depart="367.20">
        <route edges="230878792#1"/>
    </vehicle>
    <vehicle id="462" depart="369.60">
        <route edges="230878792#1 136100525#1"/>
    </vehicle>
    <vehicle id="464" depart="371.20">
        <route edges="230878792#1 136100505#0"/>
    </vehicle>
    <vehicle id="469" depart="375.20">
        <route edges="25625330#0 136100522#1"/>
    </vehicle>
    <vehicle id="470" depart="376.00">
        <route edges="25625330#0 136100525#1 136100525#3-AddedOnRampEdge"/>
    </vehicle>
    <vehicle id="471" depart="376.80">
        <route edges="25625330#0"/>
    </vehicle>
    <vehicle id="473" depart="378.40">
        <route edges="81371106#1 136100509"/>
    </vehicle>
    <vehicle id="487" depart="389.60">
        <route edges="136100525#1 136100525#3-AddedOnRampEdge"/>
    </vehicle>
    <vehicle id="489" depart="391.20">
        <route edges="136100525#1 136100525#3-AddedOnRampEdge"/>
    </vehicle>
    <vehicle id="493" depart="394.40">
        <route edges="81371106#1 136100525#1 136100525#3-AddedOnRampEdge"/>
    </vehicle>
    <vehicle id="494" depart="395.20">
        <route edges="25625330#0 136100509"/>
    </vehicle>
    <vehicle id="496" depart="396.80">
        <route edges="136100525#3-AddedOnRampEdge"/>
    </vehicle>
    <vehicle id="497" depart="397.60">
        <route edges="81371106#1 136100505#0"/>
    </vehicle>
    <vehicle id="498" depart="398.40">
        <route edges="136100525#1 136100525#3-AddedOnRampEdge"/>
    </vehicle>
    <vehicle id="502" depart="401.60">
        <route edges="136100525#1"/>
    </vehicle>
    <vehicle id="504" depart="403.20">
        <route edges="67673623#0 136100525#3-AddedOnRampEdge"/>
    </vehicle>
    <vehicle id="505" depart="404.00">
        <route edges="230878792#1"/>
    </vehicle>
    <vehicle id="507" depart="405.60">
        <route edges="25625330#0 136100522#1"/>
    </vehicle>
    <vehicle id="510" depart="408.00">
        <route edges="136100522#1"/>
    </vehicle>
    <vehicle id="511" depart="408.80">
        <route edges="81371106#1 136100525#1"/>
    </vehicle>
    <vehicle id="516" depart="412.80">
        <route edges="230878792#1 136100505#0"/>
    </vehicle>
    <vehicle id="521" depart="416.80">
        <route edges="25625330#0 136100525#1 136100525#3-AddedOnRampEdge"/>
    </vehicle>
    <vehicle id="524" depart="419.20">
        <route edges="81371106#1 136100505#0"/>
    </vehicle>
    <vehicle id="527" depart="421.60">
        <route edges="81371106#1 136100505#0"/>
    </vehicle>
    <vehicle id="528" depart="422.40">
        <route edges="136100525#3-AddedOnRampEdge"/>
    </vehicle>
    <vehicle id="529" depart="423.20">
        <route edges="230878792#1 136100525#1 136100525#3-AddedOnRampEdge"/>
    </vehicle>
    <vehicle id="530" depart="424.00">
        <route edges="81371106#1 136100505#0"/>
    </vehicle>
    <vehicle id="536" depart="428.80">
        <route edges="230878792#1 136100505#0"/>
    </vehicle>
    <vehicle id="539" depart="431.20">
        <route edges="230878792#1 136100522#1"/>
    </vehicle>
    <vehicle id="541" depart="432.80">
        <route edges="136100525#1 136100525#3-AddedOnRampEdge"/>
    </vehicle>
    <vehicle id="545" depart="436.00">
        <route edges="81371106#1 136100505#0"/>
    </vehicle>
    <vehicle id="546" depart="436.80">
        <route edges="25625330#0 136100505#0"/>
    </vehicle>
    <vehicle id="549" depart="439.20">
        <route edges="161137081#1"/>
    </vehicle>
    <vehicle id="554" depart="443.20">
        <route edges="230878792#1 136100525#1"/>
    </vehicle>
    <vehicle id="555" depart="444.00">
        <route edges="161137081#1 136100522#1"/>
    </vehicle>
    <vehicle id="556" depart="444.80">
        <route edges="230878792#1 136100522#1"/>
    </vehicle>
    <vehicle id="562" depart="449.60">
        <route edges="230878792#1 136100505#0"/>
    </vehicle>
    <vehicle id="565" depart="452.00">
        <route edges="230878792#1 136100525#1"/>
    </vehicle>
    <vehicle id="569" depart="455.20">
        <route edges="230878792#1 136100505#0"/>
    </vehicle>
    <vehicle id="570" depart="456.00">
        <route edges="25625330#0 136100522#1"/>
    </vehicle>
    <vehicle id="574" depart="459.20">
        <route edges="136100505#0"/>
    </vehicle>
    <vehicle id="576" depart="460.80">
        <route edges="230878792#1 136100522#1"/>
    </vehicle>
    <vehicle id="577" depart="461.60">
        <route edges="230878792#1 136100525#1 136100525#3-AddedOnRampEdge"/>
    </vehicle>
    <vehicle id="579" depart="463.20">
        <route edges="25625330#0 136100505#0"/>
    </vehicle>
    <vehicle id="581" depart="464.80">
        <route edges="230878792#1 136100525#1 136100525#3-AddedOnRampEdge"/>
    </vehicle>
    <vehicle id="582" depart="465.60">
        <route edges="230878792#1 136100505#0"/>
    </vehicle>
    <vehicle id="592" depart="473.60">
        <route edges="136100505#0"/>
    </vehicle>
    <vehicle id="594" depart="475.20">
        <route edges="161137081#1"/>
    </vehicle>
    <vehicle id="595" depart="476.00">
        <route edges="230878792#1 136100525#1 136100525#3-AddedOnRampEdge"/>
    </vehicle>
    <vehicle id="596" depart="476.80">
        <route edges="136100505#0"/>
    </vehicle>
    <vehicle id="599" depart="479.20">
        <route edges="81371106#1 136100505#0"/>
    </vehicle>
    <vehicle id="601" depart="480.80">
        <route edges="161137081#1"/>
    </vehicle>
    <vehicle id="602" depart="481.60">
        <route edges="136100525#1"/>
    </vehicle>
    <vehicle id="603" depart="482.40">
        <route edges="136100525#1"/>
    </vehicle>
    <vehicle id="606" depart="484.80">
        <route edges="81371106#1 136100525#1"/>
    </vehicle>
    <vehicle id="608" depart="486.40">
        <route edges="25625330#0 136100522#1"/>
    </vehicle>
    <vehicle id="609" depart="487.20">
        <route edges="136100509"/>
    </vehicle>
    <vehicle id="611" depart="488.80">
        <route edges="230878792#1 136100509"/>
    </vehicle>
    <vehicle id="612" depart="489.60">
        <route edges="25625330#0 136100525#1 136100525#3-AddedOnRampEdge"/>
    </vehicle>
    <vehicle id="613" depart="490.40">
        <route edges="25625330#0"/>
    </vehicle>
    <vehicle id="617" depart="493.60">
        <route edges="230878792#1 136100509"/>
    </vehicle>
    <vehicle id="621" depart="496.80">
        <route edges="136100525#1 136100525#3-AddedOnRampEdge"/>
    </vehicle>
    <vehicle id="627" depart="501.60">
        <route edges="81371106#1 136100525#1 136100525#3-AddedOnRampEdge"/>
    </vehicle>
    <vehicle id="629" depart="503.20">
        <route edges="136100525#1 136100525#3-AddedOnRampEdge"/>
    </vehicle>
    <vehicle id="633" depart="506.40">
        <route edges="161137081#1 136100509"/>
    </vehicle>
    <vehicle id="640" depart="512.00">
        <route edges="136100505#0"/>
    </vehicle>
    <vehicle id="641" depart="512.80">
        <route edges="230878792#1 136100522#1"/>
    </vehicle>
    <vehicle id="642" depart="513.60">
        <route edges="230878792#1"/>
    </vehicle>
    <vehicle id="643" depart="514.40">
        <route edges="81371106#1"/>
    </vehicle>
    <vehicle id="648" depart="518.40">
        <route edges="81371106#1 136100525#1"/>
    </vehicle>
    <vehicle id="651" depart="520.80">
        <route edges="25625330#0"/>
    </vehicle>
    <vehicle id="653" depart="522.40">
        <route edges="230878792#1 136100525#1 136100525#3-AddedOnRampEdge"/>
    </vehicle>
    <vehicle id="654" depart="523.20">
        <route edges="136100525#1"/>
    </vehicle>
    <vehicle id="656" depart="524.80">
        <route edges="81371106#1 136100525#1 136100525#3-AddedOnRampEdge"/>
    </vehicle>
    <vehicle id="662" depart="529.60">
        <route edges="25625330#0 136100505#0"/>
    </vehicle>
    <vehicle id="664" depart="531.20">
        <route edges="25625330#0"/>
    </vehicle>
    <vehicle id="665" depart="532.00">
        <route edges="25625330#0 136100509"/>
    </vehicle>
    <vehicle id="666" depart="532.80">
        <route edges="136100525#3-AddedOnRampEdge"/>
    </vehicle>
    <vehicle id="667" depart="533.60">
        <route edges="230878792#1 136100522#1"/>
    </vehicle>
    <vehicle id="669" depart="535.20">
        <route edges="25625330#0 136100525#1 136100525#3-AddedOnRampEdge"/>
    </vehicle>
    <vehicle id="671" depart="536.80">
        <route edges="25625330#0 136100525#1 136100525#3-AddedOnRampEdge"/>
    </vehicle>
    <vehicle id="673" depart="538.40">
        <route edges="81371106#1"/>
    </vehicle>
    <vehicle id="677" depart="541.60">
        <route edges="25625330#0 136100509"/>
    </vehicle>
    <vehicle id="682" depart="545.60">
        <route edges="25625330#0 136100522#1"/>
    </vehicle>
    <vehicle id="683" depart="546.40">
        <route edges="81371106#1 136100509"/>
    </vehicle>
    <vehicle id="708" depart="566.40">
        <route edges="230878792#1 136100505#0"/>
    </vehicle>
    <vehicle id="709" depart="567.20">
        <route edges="81371106#1 136100505#0"/>
    </vehicle>
    <vehicle id="710" depart="568.00">
        <route edges="161137081#1"/>
    </vehicle>
    <vehicle id="712" depart="569.60">
        <route edges="136100525#1 136100525#3-AddedOnRampEdge"/>
    </vehicle>
    <vehicle id="715" depart="572.00">
        <route edges="25625330#0 136100525#1"/>
    </vehicle>
    <vehicle id="716" depart="572.80">
        <route edges="230878792#1"/>
    </vehicle>
    <vehicle id="717" depart="573.60">
        <route edges="25625330#0"/>
    </vehicle>
    <vehicle id="728" depart="582.40">
        <route edges="161137081#1 136100522#1"/>
    </vehicle>
    <vehicle id="729" depart="583.20">
        <route edges="25625330#0 136100509"/>
    </vehicle>
    <vehicle id="734" depart="587.20">
        <route edges="81371106#1 136100525#1"/>
    </vehicle>
    <vehicle id="735" depart="588.00">
        <route edges="81371106#1 136100525#1 136100525#3-AddedOnRampEdge"/>
    </vehicle>
    <vehicle id="738" depart="590.40">
        <route edges="230878792#1 136100505#0"/>
    </vehicle>
    <vehicle id="745" depart="596.00">
        <route edges="81371106#1 136100525#1"/>
    </vehicle>
    <vehicle id="746" depart="596.80">
        <route edges="81371106#1 136100522#1"/>
    </vehicle>
    <vehicle id="747" depart="597.60">
        <route edges="81371106#1"/>
    </vehicle>
    <vehicle id="752" depart="601.60">
        <route edges="25625330#0 136100505#0"/>
    </vehicle>
    <vehicle id="754" depart="603.20">
        <route edges="136100525#1"/>
    </vehicle>
    <vehicle id="758" depart="606.40">
        <route edges="161137081#1"/>
    </vehicle>
    <vehicle id="761" depart="608.80">
        <route edges="25625330#0 136100525#1 136100525#3-AddedOnRampEdge"/>
    </vehicle>
    <vehicle id="763" depart="610.40">
        <route edges="136100522#1"/>
    </vehicle>
    <vehicle id="767" depart="613.60">
        <route edges="67673623#0 136100525#3-AddedOnRampEdge"/>
    </vehicle>
    <vehicle id="768" depart="614.40">
        <route edges="81371106#1 136100525#1 136100525#3-AddedOnRampEdge"/>
    </vehicle>
    <vehicle id="784" depart="627.20">
        <route edges="25625330#0 136100505#0"/>
    </vehicle>
    <vehicle id="791" depart="632.80">
        <route edges="136100505#0"/>
    </vehicle>
    <vehicle id="792" depart="633.60">
        <route edges="136100509"/>
    </vehicle>
    <vehicle id="799" depart="639.20">
        <route edges="161137081#1 136100509"/>
    </vehicle>
    <vehicle id="800" depart="640.00">
        <route edges="81371106#1 136100509"/>
    </vehicle>
    <vehicle id="801" depart="640.80">
        <route edges="230878792#1"/>
    </vehicle>
    <vehicle id="804" depart="643.20">
        <route edges="136100505#0"/>
    </vehicle>
    <vehicle id="811" depart="648.80">
        <route edges="230878792#1 136100522#1"/>
    </vehicle>
    <vehicle id="812" depart="649.60">
        <route edges="136100505#0"/>
    </vehicle>
    <vehicle id="813" depart="650.40">
        <route edges="136100525#3-AddedOnRampEdge"/>
    </vehicle>
    <vehicle id="817" depart="653.60">
        <route edges="81371106#1 136100505#0"/>
    </vehicle>
    <vehicle id="819" depart="655.20">
        <route edges="136100525#1 136100525#3-AddedOnRampEdge"/>
    </vehicle>
    <vehicle id="820" depart="656.00">
        <route edges="136100522#1"/>
    </vehicle>
    <vehicle id="826" depart="660.80">
        <route edges="25625330#0 136100525#1 136100525#3-AddedOnRampEdge"/>
    </vehicle>
    <vehicle id="830" depart="664.00">
        <route edges="81371106#1 136100522#1"/>
    </vehicle>
    <vehicle id="833" depart="666.40">
        <route edges="230878792#1 136100525#1 136100525#3-AddedOnRampEdge"/>
    </vehicle>
    <vehicle id="837" depart="669.60">
        <route edges="136100525#1 136100525#3-AddedOnRampEdge"/>
    </vehicle>
    <vehicle id="838" depart="670.40">
        <route edges="161137081#1 136100509"/>
    </vehicle>
    <vehicle id="842" depart="673.60">
        <route edges="230878792#1 136100505#0"/>
    </vehicle>
    <vehicle id="843" depart="674.40">
        <route edges="81371106#1 136100525#1"/>
    </vehicle>
    <vehicle id="844" depart="675.20">
        <route edges="25625330#0 136100525#1"/>
    </vehicle>
    <vehicle id="849" depart="679.20">
        <route edges="136100525#3-AddedOnRampEdge"/>
    </vehicle>
    <vehicle id="853" depart="682.40">
        <route edges="25625330#0 136100522#1"/>
    </vehicle>
    <vehicle id="860" depart="688.00">
        <route edges="230878792#1 136100505#0"/>
    </vehicle>
    <vehicle id="862" depart="689.60">
        <route edges="25625330#0"/>
    </vehicle>
    <vehicle id="864" depart="691.20">
        <route edges="161137081#1 136100509"/>
    </vehicle>
    <vehicle id="865" depart="692.00">
        <route edges="230878792#1"/>
    </vehicle>
    <vehicle id="867" depart="693.60">
        <route edges="230878792#1 136100505#0"/>
    </vehicle>
    <vehicle id="868" depart="694.40">
        <route edges="81371106#1 136100505#0"/>
    </vehicle>
    <vehicle id="872" depart="697.60">
        <route edges="81371106#1"/>
    </vehicle>
    <vehicle id="873" depart="698.40">
        <route edges="25625330#0 136100505#0"/>
    </vehicle>
    <vehicle id="878" depart="702.40">
        <route edges="136100525#1"/>
    </vehicle>
    <vehicle id="880" depart="704.00">
        <route edges="230878792#1"/>
    </vehicle>
    <vehicle id="881" depart="704.80">
        <route edges="230878792#1 136100509"/>
    </vehicle>
    <vehicle id="884" depart="707.20">
        <route edges="136100522#1"/>
    </vehicle>
    <vehicle id="886" depart="708.80">
        <route edges="136100525#1"/>
    </vehicle>
    <vehicle id="889" depart="711.20">
        <route edges="230878792#1 136100525#1"/>
    </vehicle>
    <vehicle id="892" depart="713.60">
        <route edges="136100522#1"/>
    </vehicle>
    <vehicle id="893" depart="714.40">
        <route edges="230878792#1 136100525#1"/>
    </vehicle>
    <vehicle id="897" depart="717.60">
        <route edges="230878792#1 136100509"/>
    </vehicle>
    <vehicle id="902" depart="721.60">
        <route edges="230878792#1 136100505#0"/>
    </vehicle>
    <vehicle id="903" depart="722.40">
        <route edges="25625330#0 136100505#0"/>
    </vehicle>
    <vehicle id="906" depart="724.80">
        <route edges="81371106#1 136100525#1 136100525#3-AddedOnRampEdge"/>
    </vehicle>
    <vehicle id="909" depart="727.20">
        <route edges="81371106#1 136100505#0"/>
    </vehicle>
    <vehicle id="910" depart="728.00">
        <route edges="161137081#1"/>