<?xml version="1.0" encoding="UTF-8"?>

<!-- generated on 2022-09-09 16:17:05 by Eclipse SUMO duarouter Version 1.10.0
<configuration xmlns:xsi="http://www.w3.org/2001/XMLSchema-instance" xsi:noNamespaceSchemaLocation="http://sumo.dlr.de/xsd/duarouterConfiguration.xsd">

    <input>
        <net-file value="/home/tedy/Sumo/script/Min-Plus/2022-09-09-16-16-45/osm.net.xml"/>
        <route-files value="/home/tedy/Sumo/script/Min-Plus/2022-09-09-16-16-45/osm.passenger.trips.xml"/>
    </input>

    <output>
        <output-file value="routes.rou.xml"/>
        <alternatives-output value="routes.rou.alt.xml"/>
    </output>

    <time>
        <begin value="0"/>
        <end value="3600"/>
    </time>

    <report>
        <no-warnings value="true"/>
        <ignore-errors value="true"/>
        <no-step-log value="true"/>
    </report>

</configuration>
-->

<routes xmlns:xsi="http://www.w3.org/2001/XMLSchema-instance" xsi:noNamespaceSchemaLocation="http://sumo.dlr.de/xsd/routes_file.xsd">
    <vType id="veh_passenger" vClass="passenger"/>
    <vehicle id="veh0" type="veh_passenger" depart="0.00" departLane="best">
        <route edges="230878792#0 230878792#2 -322215469#1 -190311290 -157593576#5 -157593576#4"/>
    </vehicle>
    <vehicle id="veh1" type="veh_passenger" depart="17.91" departLane="best" departSpeed="max">
        <route edges="305384998 230878792#0 230878792#2 230878792#3 230878792#4 136100505#0 161082232#0 157593576#0 190311292"/>
    </vehicle>
    <vehicle id="veh2" type="veh_passenger" depart="35.82" departLane="best" departSpeed="max">
        <route edges="81371106#0 136100505#0 67676489#0 -67676489#1"/>
    </vehicle>
    <vehicle id="veh3" type="veh_passenger" depart="53.74" departLane="best" departSpeed="max">
        <route edges="136100508#0 136100508#4 161082231#0 161082232#0 157593576#0 157593576#2 157593576#3 157593576#4 157593576#5 -157593576#5"/>
    </vehicle>
    <vehicle id="veh4" type="veh_passenger" depart="71.65" departLane="best" departSpeed="max">
        <route edges="-305384999#4 -305384999#3 230878792#0 230878792#2 230878792#3 230878792#4 136100505#0 161082232#0 161082232#2"/>
    </vehicle>
    <vehicle id="veh5" type="veh_passenger" depart="89.56" departLane="best">
        <route edges="-157593576#4 -157593576#3 -157593576#2 190311292 322215470#0 230878792#4 136100509"/>
    </vehicle>
    <vehicle id="veh6" type="veh_passenger" depart="107.47" departLane="best">
        <route edges="230878792#3 230878792#4 136100505#0 161082232#0 161082232#2"/>
    </vehicle>
    <vehicle id="veh7" type="veh_passenger" depart="125.38" departLane="best" departSpeed="max">
        <route edges="-305384999#4 -305384999#3 230878792#0 230878792#2 230878792#3 230878792#4 136100505#0 67676489#0 161082236#0"/>
    </vehicle>
    <vehicle id="veh8" type="veh_passenger" depart="143.30" departLane="best">
        <route edges="471168801#0 230878791"/>
    </vehicle>
    <vehicle id="veh9" type="veh_passenger" depart="161.21" departLane="best" departSpeed="max">
        <route edges="-157611392 -157593576#3 -157593576#2 190311292 322215470#0 230878792#4 136100505#0 67676489#0 -67676489#1"/>
    </vehicle>
    <vehicle id="veh10" type="veh_passenger" depart="179.12" departLane="best" departSpeed="max">
        <route edges="774954185#0 136100508#4 161082231#0 67676489#0 161082236#0"/>
    </vehicle>
    <vehicle id="veh12" type="veh_passenger" depart="214.94" departLane="best">
        <route edges="157593576#7 -305384999#3 -471168801#4 988528482 988528478#4 988528478#1 988528478#2 988528478#3"/>
    </vehicle>
    <vehicle id="veh13" type="veh_passenger" depart="232.86" departLane="best" departSpeed="max">
        <route edges="136100508#0 136100508#4 161082231#0 67676489#0 161082236#0"/>
    </vehicle>
    <vehicle id="veh14" type="veh_passenger" depart="250.77" departLane="best" departSpeed="max">
        <route edges="774954185#0 136100508#4 161082231#0 67676489#0 161082236#0"/>
    </vehicle>
    <vehicle id="veh15" type="veh_passenger" depart="268.68" departLane="best" departSpeed="max">
        <route edges="25625330#0 136100522#1 305384999#0 -157593576#7"/>
    </vehicle>
    <vehicle id="veh16" type="veh_passenger" depart="286.59" departLane="best" departSpeed="max">
        <route edges="-305384999#4 -305384999#3 230878792#0 230878792#2 230878792#3 230878792#4 136100525#1 136100525#3-AddedOnRampEdge 136100525#3"/>
    </vehicle>
    <vehicle id="veh17" type="veh_passenger" depart="304.50" departLane="best" departSpeed="max">
        <route edges="-157593576#8 -305384999#3 230878792#0 230878792#2 230878792#3 230878792#4 136100509"/>
    </vehicle>
    <vehicle id="veh18" type="veh_passenger" depart="322.42" departLane="best" departSpeed="max">
        <route edges="-157611392 -157593576#3 -157593576#2 190311292 322215470#0 230878792#4 136100525#1 136100525#3-AddedOnRampEdge 136100525#3"/>
    </vehicle>
    <vehicle id="veh19" type="veh_passenger" depart="340.33" departLane="best">
        <route edges="230878792#2 230878792#3 230878792#4 136100505#0 67676489#0 161082236#0"/>
    </vehicle>
    <vehicle id="veh20" type="veh_passenger" depart="358.24" departLane="best" departSpeed="max">
        <route edges="-161082236#2 -67676489#1 161137081#0 161137081#1 136100522#1 230878792#0 230878792#2"/>
    </vehicle>
    <vehicle id="veh21" type="veh_passenger" depart="376.15" departLane="best" departSpeed="max">
        <route edges="-161082236#2 -67676489#1 161137081#0 161137081#1 136100522#1 305384999#0 157593576#8"/>
    </vehicle>
    <vehicle id="veh22" type="veh_passenger" depart="394.06" departLane="best">
        <route edges="988528479 471168801#0 230878792#0 230878792#2 230878792#3 230878792#4 136100505#0 161137081#0 161137081#1"/>
    </vehicle>
    <vehicle id="veh23" type="veh_passenger" depart="411.97" departLane="best">
        <route edges="161082232#0 157593576#0 157593576#2 157593576#3 157593576#4 157593576#5 157593576#6 157593576#7 -305384999#3 230878791"/>
    </vehicle>
    <vehicle id="veh24" type="veh_passenger" depart="429.89" departLane="best" departSpeed="max">
        <route edges="774954185#0 136100508#4 161082231#0 161137081#0 161137081#1 136100522#1 305384999#0 305384999#4"/>
    </vehicle>
    <vehicle id="veh25" type="veh_passenger" depart="447.80" departLane="best" departSpeed="max">
        <route edges="-305384999#4 -157593576#7 -157593576#6 -157593576#5"/>
    </vehicle>
    <vehicle id="veh26" type="veh_passenger" depart="465.71" departLane="best" departSpeed="max">
        <route edges="-305384999#4 -157593576#7 -157593576#6 -157593576#5 -157593576#4 -157593576#3 -157593576#2 190311292 93895562#1"/>
    </vehicle>
    <vehicle id="veh27" type="veh_passenger" depart="483.62" departLane="best" departSpeed="max">
        <route edges="81371106#0 136100525#1 136100525#3-AddedOnRampEdge"/>
    </vehicle>
    <vehicle id="veh28" type="veh_passenger" depart="501.53" departLane="best">
        <route edges="230878792#4 136100522#1 305384999#0 157593576#8"/>
    </vehicle>
    <vehicle id="veh29" type="veh_passenger" depart="519.45" departLane="best">
        <route edges="161082232#0 157593576#0 190311292 322215470#0 230878792#4 136100522#1"/>
    </vehicle>
    <vehicle id="veh30" type="veh_passenger" depart="537.36" departLane="best">
        <route edges="161137081#0 161137081#1 136100522#1 -471168801#4 988528482 988528478#4 471168800#0"/>
    </vehicle>
    <vehicle id="veh31" type="veh_passenger" depart="555.27" departLane="best" departSpeed="max">
        <route edges="136100508#0 136100508#4 161082231#0 161137081#0 161137081#1 136100509"/>
    </vehicle>
    <vehicle id="veh32" type="veh_passenger" depart="573.18" departLane="best">
        <route edges="988528482 988528478#4 988528478#1 988528478#2 988528479 471168801#0 230878792#0 230878792#2 230878792#3 230878792#4 136100505#0 161082232#0 161082232#2"/>
    </vehicle>
    <vehicle id="veh33" type="veh_passenger" depart="591.09" departLane="best" departSpeed="max">
        <route edges="-157611392 157593576#4 157593576#5 157593576#6 157593576#7 -157593576#7"/>
    </vehicle>
    <vehicle id="veh34" type="veh_passenger" depart="609.01" departLane="best" departSpeed="max">
        <route edges="-157611392 -157593576#3 -157593576#2 190311292 322215470#0 230878792#4 136100505#0 161137081#0"/>
    </vehicle>
    <vehicle id="veh35" type="veh_passenger" depart="626.92" departLane="best">
        <route edges="330203111#0 -157593576#6 -157593576#5 -157593576#4 157611392"/>
    </vehicle>
    <vehicle id="veh36" type="veh_passenger" depart="644.83" departLane="best">
        <route edges="988528482 988528478#4 988528478#1 988528478#2 988528479 471168801#0 230878792#0 230878792#2 230878792#3 230878792#4 136100505#0 161082232#0 161082232#2"/>
    </vehicle>
    <vehicle id="veh37" type="veh_passenger" depart="662.74" departLane="best">
        <route edges="988528478#2 988528479 471168801#0 230878792#0 230878792#2 -322215469#1 -93895562#5 330203112"/>
    </vehicle>
    <vehicle id="veh38" type="veh_passenger" depart="680.65" departLane="best" departSpeed="max">
        <route edges="25625330#0 136100505#0 161082232#0 161082232#2"/>
    </vehicle>
    <vehicle id="veh39" type="veh_passenger" depart="698.57" departLane="best">
        <route edges="136100508#4 161082231#0 161082232#0 157593576#0 157593576#2 157593576#3 157593576#4 190311291 93895562#5"/>
    </vehicle>
    <vehicle id="veh40" type="veh_passenger" depart="716.48" departLane="best" departSpeed="max">
        <route edges="81371106#0 136100522#1"/>
    </vehicle>
    <vehicle id="veh41" type="veh_passenger" depart="734.39" departLane="best" departSpeed="max">
        <route edges="305384998 230878792#0 230878792#2 230878792#3 230878792#4 136100505#0 161082232#0 161082232#2"/>
    </vehicle>
    <vehicle id="veh42" type="veh_passenger" depart="752.30" departLane="best">
        <route edges="322215469#0 230878792#3 230878792#4 136100505#0 161082232#0 161082232#2"/>
    </vehicle>
    <vehicle id="veh43" type="veh_passenger" depart="770.21" departLane="best">
        <route edges="-157593576#1 157593576#0 190311292 322215470#0 230878792#4 136100525#1 136100525#3-AddedOnRampEdge"/>
    </vehicle>
    <vehicle id="veh44" type="veh_passenger" depart="788.13" departLane="best" departSpeed="max">
        <route edges="81371106#0 136100505#0 161082232#0 157593576#0 190311292 93895562#1 322215471"/>
    </vehicle>
    <vehicle id="veh45" type="veh_passenger" depart="806.04" departLane="best" departSpeed="max">
        <route edges="81371106#0 136100505#0 161082232#0 157593576#0 190311292 93895562#1 93895562#3"/>
    </vehicle>
    <vehicle id="veh46" type="veh_passenger" depart="823.95" departLane="best" departSpeed="max">
        <route edges="-157593576#8 -305384999#3 305384999#0"/>
    </vehicle>
    <vehicle id="veh47" type="veh_passenger" depart="841.86" departLane="best">
        <route edges="305384999#0 -305384999#3 230878792#0 230878792#2 -322215469#1 -93895562#5 -93895562#3 -93895562#1 -93895562#0"/>
    </vehicle>
    <vehicle id="veh49" type="veh_passenger" depart="877.69" departLane="best" departSpeed="max">
        <route edges="136100508#0 136100508#4 161082231#0 161137081#0 161137081#1 136100509"/>
    </vehicle>
    <vehicle id="veh50" type="veh_passenger" depart="895.60" departLane="best">
        <route edges="161082231#0 161137081#0 161137081#1 136100522#1 230878792#0 230878792#2"/>
    </vehicle>
    <vehicle id="veh51" type="veh_passenger" depart="913.51" departLane="best" departSpeed="max">
        <route edges="-305384999#4 -305384999#3 230878792#0 230878792#2 230878792#3 230878792#4 136100525#1 136100525#3-AddedOnRampEdge 136100525#3"/>
    </vehicle>
    <vehicle id="veh52" type="veh_passenger" depart="931.42" departLane="best">
        <route edges="988528482 988528478#4 988528478#1 988528478#2 988528479 471168801#0 230878792#0 230878792#2 230878792#3 230878792#4 136100505#0 161137081#0 161137081#1"/>
    </vehicle>
    <vehicle id="veh53" type="veh_passenger" depart="949.33" departLane="best" departSpeed="max">
        <route edges="-161082236#2 -67676489#1 161137081#0 161137081#1 136100509"/>
    </vehicle>
    <vehicle id="veh54" type="veh_passenger" depart="967.25" departLane="best">
        <route edges="-93895562#1 322215470#0 230878792#4 136100505#0 67676489#0 161082236#0"/>
    </vehicle>
    <vehicle id="veh55" type="veh_passenger" depart="985.16" departLane="best" departSpeed="max">
        <route edges="-305384999#4 -305384999#3 230878792#0 230878792#2 230878792#3 230878792#4 136100509"/>
    </vehicle>
    <vehicle id="veh56" type="veh_passenger" depart="1003.07" departLane="best" departSpeed="max">
        <route edges="-157593576#8 -305384999#3 230878792#0 230878792#2 230878792#3 230878792#4 136100505#0 161137081#0"/>
    </vehicle>
    <vehicle id="veh57" type="veh_passenger" depart="1020.98" departLane="best" departSpeed="max">
        <route edges="-305384999#4 -305384999#3 -471168801#4 471168801#0"/>
    </vehicle>
    <vehicle id="veh58" type="veh_passenger" depart="1038.89" departLane="best" departSpeed="max">
        <route edges="774954185#0 136100508#4 161082231#0 161137081#0 161137081#1 136100522#1 230878792#0 230878792#2 -322215469#1"/>
    </vehicle>
    <vehicle id="veh59" type="veh_passenger" depart="1056.81" departLane="best" departSpeed="max">
        <route edges="-305384999#4 -305384999#3 230878792#0 230878792#2 -322215469#1 -93895562#5 -93895562#3 -93895562#1 -93895562#0"/>
    </vehicle>
    <vehicle id="veh60" type="veh_passenger" depart="1074.72" departLane="best" departSpeed="max">
        <route edges="93895562#0 322215470#0 230878792#4 136100505#0 67676489#0 161082236#0"/>
    </vehicle>
    <vehicle id="veh62" type="veh_passenger" depart="1110.54" departLane="best" departSpeed="max">
        <route edges="136100508#0 136100508#4 161082231#0 161082232#0"/>
    </vehicle>
    <vehicle id="veh63" type="veh_passenger" depart="1128.45" departLane="best" departSpeed="max">
        <route edges="25625330#0 136100505#0 161082232#0 157593576#0 157593576#2 157593576#3 157593576#4 190311291"/>
    </vehicle>
    <vehicle id="veh64" type="veh_passenger" depart="1146.37" departLane="best">
        <route edges="988528478#4 988528478#1 988528478#2 988528479 471168801#0 230878792#0 230878792#2 230878792#3 230878792#4 136100505#0 67676489#0 -67676489#1"/>
    </vehicle>
    <vehicle id="veh65" type="veh_passenger" depart="1164.28" departLane="best" departSpeed="max">
        <route edges="136100508#0 136100508#4 161082231#0 161082232#0 157593576#0 157593576#2"/>
    </vehicle>
    <vehicle id="veh66" type="veh_passenger" depart="1182.19" departLane="best" departSpeed="max">
        <route edges="774954185#0 136100508#4 161082231#0 161137081#0 161137081#1 136100509"/>
    </vehicle>
    <vehicle id="veh68" type="veh_passenger" depart="1218.01" departLane="best" departSpeed="max">
        <route edges="136100508#0 136100508#4 161082231#0 161137081#0 67673623#0 136100525#3-AddedOnRampEdge 136100525#3"/>
    </vehicle>
    <vehicle id="veh69" type="veh_passenger" depart="1235.92" departLane="best">
        <route edges="161082231#0 161082232#0 157593576#0 157593576#2 157593576#3 157593576#4 157593576#5 190311290 -190311290"/>
    </vehicle>
    <vehicle id="veh70" type="veh_passenger" depart="1253.84" departLane="best">
        <route edges="988528482 988528478#4 988528478#1 988528478#2 988528479 471168801#0 230878792#0 230878792#2 -322215469#1 -93895562#5 -93895562#3 322215471"/>
    </vehicle>
    <vehicle id="veh71" type="veh_passenger" depart="1271.75" departLane="best">
        <route edges="988528478#2 988528479 471168801#0 230878792#0 230878792#2 230878792#3 230878792#4 136100505#0 67676489#0"/>
    </vehicle>
    <vehicle id="veh72" type="veh_passenger" depart="1289.66" departLane="best" departSpeed="max">
        <route edges="136100508#0 136100508#4 161082231#0 161137081#0 161137081#1 136100522#1 305384999#0 -305384999#3"/>
    </vehicle>
    <vehicle id="veh73" type="veh_passenger" depart="1307.57" departLane="best" departSpeed="max">
        <route edges="136100508#0 136100508#4 161082231#0 161137081#0 161137081#1 136100522#1 -471168801#4 988528482 988528478#4"/>
    </vehicle>
    <vehicle id="veh74" type="veh_passenger" depart="1325.48" departLane="best" departSpeed="max">
        <route edges="-322215471 190311288 157593576#3 157593576#4 157593576#5 157593576#6 157593576#7 305384999#4"/>
    </vehicle>
    <vehicle id="veh75" type="veh_passenger" depart="1343.40" departLane="best">
        <route edges="136100508#4 161082231#0 161082232#0 157593576#0 157593576#2 157593576#3 157611392"/>
    </vehicle>
    <vehicle id="veh76" type="veh_passenger" depart="1361.31" departLane="best">
        <route edges="93895562#5 -190311290 157593576#6 157593576#7 -305384999#3 -471168801#4 988528482"/>
    </vehicle>
    <vehicle id="veh77" type="veh_passenger" depart="1379.22" departLane="best">
        <route edges="161082232#0 157593576#0 157593576#2 157593576#3 157593576#4 157593576#5 157593576#6 157593576#7 -305384999#3 230878792#0"/>
    </vehicle>
    <vehicle id="veh78" type="veh_passenger" depart="1397.13" departLane="best" departSpeed="max">
        <route edges="-161082236#2 -67676489#1 161137081#0 67673623#0 136100525#3-AddedOnRampEdge 136100525#3"/>
    </vehicle>
    <vehicle id="veh79" type="veh_passenger" depart="1415.04" departLane="best">
        <route edges="988528478#2 988528479 471168801#0 230878792#0 230878792#2 230878792#3 230878792#4 136100505#0 67676489#0 161082236#0"/>
    </vehicle>
    <vehicle id="veh80" type="veh_passenger" depart="1432.96" departLane="best" departSpeed="max">
        <route edges="-157593576#8 -305384999#3 230878792#0 230878792#2 230878792#3 230878792#4 136100505#0 67676489#0 161082236#0"/>
    </vehicle>
    <vehicle id="veh81" type="veh_passenger" depart="1450.87" departLane="best" departSpeed="max">
        <route edges="-161082236#2 -67676489#1 161137081#0 161137081#1 136100522#1 -471168801#4 988528482 988528478#4 988528478#1"/>
    </vehicle>
    <vehicle id="veh83" type="veh_passenger" depart="1486.69" departLane="best">
        <route edges="-322215469#1 -93895562#5 -93895562#3 -93895562#1 -93895562#0"/>
    </vehicle>
    <vehicle id="veh84" type="veh_passenger" depart="1504.60" departLane="best" departSpeed="max">
        <route edges="81371106#0 136100509"/>
    </vehicle>
    <vehicle id="veh85" type="veh_passenger" depart="1522.52" departLane="best" departSpeed="max">
        <route edges="136100508#0 136100508#4 161082231#0 67676489#0 161082236#0"/>
    </vehicle>
    <vehicle id="veh86" type="veh_passenger" depart="1540.43" departLane="best">
        <route edges="157593576#5 190311290 322215469#0 230878792#3 230878792#4 136100505#0 67676489#0"/>
    </vehicle>
    <vehicle id="veh87" type="veh_passenger" depart="1558.34" departLane="best" departSpeed="max">
        <route edges="-305384999#4 -305384999#3 230878791"/>
    </vehicle>
    <vehicle id="veh88" type="veh_passenger" depart="1576.25" departLane="best">
        <route edges="-322215469#1 -190311290 157593576#6 157593576#7 157593576#8"/>
    </vehicle>
    <vehicle id="veh89" type="veh_passenger" depart="1594.16" departLane="best" departSpeed="max">
        <route edges="25625330#0 136100525#1 136100525#3-AddedOnRampEdge 136100525#3"/>
    </vehicle>
    <vehicle id="veh91" type="veh_passenger" depart="1629.99" departLane="best" departSpeed="max">
        <route edges="-157593576#8 -305384999#3 230878792#0 230878792#2 230878792#3 230878792#4 136100509"/>
    </vehicle>
    <vehicle id="veh92" type="veh_passenger" depart="1647.90" departLane="best" departSpeed="max">
        <route edges="81371106#0 136100505#0 161082232#0 157593576#0 157593576#2 157593576#3 157593576#4 190311291 330203112"/>
    </vehicle>
    <vehicle id="veh93" type="veh_passenger" depart="1665.81" departLane="best">
        <route edges="67676489#0 -67676489#1 161137081#0 161137081#1 136100522#1 230878791"/>
    </vehicle>
    <vehicle id="veh94" type="veh_passenger" depart="1683.72" departLane="best">
        <route edges="190311290 -190311290 157593576#6 157593576#7 -305384999#3 -471168801#4 988528482 988528478#4 988528478#1 988528478#2 988528479"/>
    </vehicle>
    <vehicle id="veh95" type="veh_passenger" depart="1701.64" departLane="best">
        <route edges="67676486#0 161082236#0 -161082236#2 -67676489#1 161137081#0 67673623#0 136100525#3-AddedOnRampEdge 136100525#3"/>
    </vehicle>
    <vehicle id="veh96" type="veh_passenger" depart="1719.55" departLane="best" departSpeed="max">
        <route edges="25625330#0 136100505#0 161082232#0 157593576#0 190311292 93895562#1"/>
    </vehicle>
    <vehicle id="veh97" type="veh_passenger" depart="1737.46" departLane="best" departSpeed="max">
        <route edges="-161082236#2 -67676489#1 161082232#0 157593576#0 190311292 -93895562#0"/>
    </vehicle>
    <vehicle id="veh98" type="veh_passenger" depart="1755.37" departLane="best" departSpeed="max">
        <route edges="-157611392 -157593576#3 -157593576#2 190311292 322215470#0 230878792#4 136100505#0 67676489#0 161082236#0"/>
    </vehicle>
    <vehicle id="veh99" type="veh_passenger" depart="1773.28" departLane="best" departSpeed="max">
        <route edges="-322215471 -93895562#1 322215470#0 230878792#4 136100505#0 67676489#0 161082236#0"/>
    </vehicle>
    <vehicle id="veh100" type="veh_passenger" depart="1791.20" departLane="best" departSpeed="max">
        <route edges="25625330#0 136100509"/>
    </vehicle>
    <vehicle id="veh102" type="veh_passenger" depart="1827.02" departLane="best" departSpeed="max">
        <route edges="136100508#0 136100508#4 161082231#0 161137081#0 67673623#0 136100525#3-AddedOnRampEdge 136100525#3"/>
    </vehicle>
    <vehicle id="veh103" type="veh_passenger" depart="1844.93" departLane="best">
        <route edges="-157593576#1 157593576#0 157593576#2 157593576#3 157593576#4 157593576#5 157593576#6 157593576#7 305384999#4"/>
    </vehicle>
    <vehicle id="veh104" type="veh_passenger" depart="1862.84" departLane="best">
        <route edges="230878792#0 230878792#2 230878792#3 230878792#4 136100509"/>
    </vehicle>
    <vehicle id="veh105" type="veh_passenger" depart="1880.76" departLane="best" departSpeed="max">
        <route edges="305384998 230878792#0 230878792#2 230878792#3 230878792#4 136100505#0 67676489#0 161082236#0"/>
    </vehicle>
    <vehicle id="veh106" type="veh_passenger" depart="1898.67" departLane="best" departSpeed="max">
        <route edges="136100508#0 136100508#4 161082231#0 161082232#0 157593576#0 157593576#2 -157593576#2"/>
    </vehicle>
    <vehicle id="veh107" type="veh_passenger" depart="1916.58" departLane="best" departSpeed="max">
        <route edges="-157593576#8 -157593576#7 -157593576#6 -157593576#5 190311291 330203112"/>
    </vehicle>
    <vehicle id="veh108" type="veh_passenger" depart="1934.49" departLane="best" departSpeed="max">
        <route edges="93895562#0 322215470#0 230878792#4 136100505#0 161082232#0 161082232#2"/>
    </vehicle>
    <vehicle id="veh109" type="veh_passenger" depart="1952.40" departLane="best" departSpeed="max">
        <route edges="774954185#0 136100508#4 161082231#0 67676489#0 161082236#0"/>
    </vehicle>
    <vehicle id="veh110" type="veh_passenger" depart="1970.32" departLane="best" departSpeed="max">
        <route edges="-161082236#2 -67676489#1 161082232#0 157593576#0 190311292 -93895562#0"/>
    </vehicle>
    <vehicle id="veh111" type="veh_passenger" depart="1988.23" departLane="best" departSpeed="max">
        <route edges="-330203112 93895562#5 -190311290 157593576#6 157593576#7 -305384999#3 -471168801#4 988528482 988528478#4 471168800#0"/>
    </vehicle>
    <vehicle id="veh112" type="veh_passenger" depart="2006.14" departLane="best">
        <route edges="471168800#0 988528478#2 988528479 471168801#0 230878792#0 230878792#2 -322215469#1 -93895562#5 330203112"/>
    </vehicle>
    <vehicle id="veh113" type="veh_passenger" depart="2024.05" departLane="best" departSpeed="max">
        <route edges="81371106#0 136100509"/>
    </vehicle>
    <vehicle id="veh114" type="veh_passenger" depart="2041.96" departLane="best" departSpeed="max">
        <route edges="136100508#0 136100508#4 161082231#0 161137081#0"/>
    </vehicle>
    <vehicle id="veh115" type="veh_passenger" depart="2059.87" departLane="best" departSpeed="max">
        <route edges="-161082236#2 -67676489#1 67676489#0"/>
    </vehicle>
    <vehicle id="veh116" type="veh_passenger" depart="2077.79" departLane="best" departSpeed="max">
        <route edges="774954185#0 136100508#4 161082231#0 161137081#0 161137081#1 136100522#1 -471168801#4 988528482 988528478#4 988528478#1 988528478#2 988528478#3"/>
    </vehicle>
    <vehicle id="veh117" type="veh_passenger" depart="2095.70" departLane="best">
        <route edges="471168801#0 230878792#0 230878792#2 -322215469#1 -93895562#5 330203112"/>
    </vehicle>
    <vehicle id="veh119" type="veh_passenger" depart="2131.52" departLane="best">
        <route edges="330203111#0 -157593576#6 -157593576#5 -157593576#4 -157593576#3 -157593576#2 190311292 -93895562#0"/>
    </vehicle>
    <vehicle id="veh120" type="veh_passenger" depart="2149.43" departLane="best" departSpeed="max">
        <route edges="81371106#0 136100505#0 161082232#0 157593576#0 157593576#2 157593576#3 157593576#4 190311291 330203112"/>
    </vehicle>
    <vehicle id="veh121" type="veh_passenger" depart="2167.35" departLane="best" departSpeed="max">
        <route edges="-305384999#4 -305384999#3 230878792#0 230878792#2 -322215469#1 -93895562#5 -93895562#3 322215471"/>
    </vehicle>
    <vehicle id="veh122" type="veh_passenger" depart="2185.26" departLane="best">
        <route edges="136100508#4 161082231#0 161137081#0 67673623#0 136100525#3-AddedOnRampEdge 136100525#3"/>
    </vehicle>
    <vehicle id="veh123" type="veh_passenger" depart="2203.17" departLane="best">
        <route edges="471168800#0 988528478#2 988528479 471168801#0 230878792#0 230878792#2 230878792#3 230878792#4 136100509"/>
    </vehicle>
    <vehicle id="veh124" type="veh_passenger" depart="2221.08" departLane="best">
        <route edges="-157593576#4 -157593576#3 -157593576#2 190311292 322215470#0 230878792#4 136100509"/>
    </vehicle>
    <vehicle id="veh125" type="veh_passenger" depart="2238.99" departLane="best">
        <route edges="-67676489#1 161082232#0 157593576#0 157593576#2 157593576#3 157593576#4 190311291 330203112"/>
    </vehicle>
    <vehicle id="veh126" type="veh_passenger" depart="2256.91" departLane="best">
        <route edges="988528478#2 988528479 471168801#0 230878792#0 230878792#2 230878792#3 230878792#4 136100525#1 136100525#3-AddedOnRampEdge 136100525#3"/>
    </vehicle>
    <vehicle id="veh127" type="veh_passenger" depart="2274.82" departLane="best">
        <route edges="230878792#2 -322215469#1 -190311290 157593576#6 157593576#7 157593576#8"/>
    </vehicle>
    <vehicle id="veh128" type="veh_passenger" depart="2292.73" departLane="best">
        <route edges="988528478#4 988528478#1 988528478#2 988528479 471168801#0 230878792#0 230878792#2 230878792#3 230878792#4 136100505#0 161082232#0 161082232#2"/>
    </vehicle>
    <vehicle id="veh130" type="veh_passenger" depart="2328.55" departLane="best" departSpeed="max">
        <route edges="25625330#0 136100525#1 136100525#3-AddedOnRampEdge"/>
    </vehicle>
    <vehicle id="veh131" type="veh_passenger" depart="2346.47" departLane="best">
        <route edges="190311288 -157593576#2 -157593576#1 161082232#2"/>
    </vehicle>
    <vehicle id="veh132" type="veh_passenger" depart="2364.38" departLane="best" departSpeed="max">
        <route edges="136100508#0 136100508#4 161082231#0 67676489#0 161082236#0"/>
    </vehicle>
    <vehicle id="veh133" type="veh_passenger" depart="2382.29" departLane="best" departSpeed="max">
        <route edges="-322215471 -93895562#1 322215470#0 230878792#4 136100522#1 230878791"/>
    </vehicle>
    <vehicle id="veh134" type="veh_passenger" depart="2400.20" departLane="best">
        <route edges="161082231#0 161137081#0 161137081#1 136100522#1 230878792#0"/>
    </vehicle>
    <vehicle id="veh135" type="veh_passenger" depart="2418.11" departLane="best" departSpeed="max">
        <route edges="305384998 230878792#0 230878792#2 -322215469#1 -190311290 -157593576#5 190311291"/>
    </vehicle>
    <vehicle id="veh136" type="veh_passenger" depart="2436.03" departLane="best">
        <route edges="136100505#0 161082232#0 157593576#0 157593576#2 157593576#3 157593576#4 157593576#5 190311290 322215469#0 -322215469#1"/>
    </vehicle>
    <vehicle id="veh137" type="veh_passenger" depart="2453.94" departLane="best" departSpeed="max">
        <route edges="25625330#0 136100505#0 161082232#0 157593576#0"/>
    </vehicle>
    <vehicle id="veh138" type="veh_passenger" depart="2471.85" departLane="best" departSpeed="max">
        <route edges="25625330#0 136100525#1 136100525#3-AddedOnRampEdge 136100525#3"/>
    </vehicle>
    <vehicle id="veh139" type="veh_passenger" depart="2489.76" departLane="best" departSpeed="max">
        <route edges="-330203112 93895562#5 -190311290 157593576#6 157593576#7 157593576#8"/>
    </vehicle>
    <vehicle id="veh140" type="veh_passenger" depart="2507.67" departLane="best" departSpeed="max">
        <route edges="136100508#0 136100508#4 161082231#0 161137081#0 67673623#0 136100525#3-AddedOnRampEdge 136100525#3"/>
    </vehicle>
    <vehicle id="veh141" type="veh_passenger" depart="2525.59" departLane="best" departSpeed="max">
        <route edges="-161082236#2 -67676489#1 161082232#0 157593576#0 157593576#2 157593576#3 157611392"/>
    </vehicle>
    <vehicle id="veh142" type="veh_passenger" depart="2543.50" departLane="best" departSpeed="max">
        <route edges="81371106#0 136100505#0 67676489#0 161082236#0"/>
    </vehicle>