<?xml version="1.0" encoding="UTF-8"?>

<!-- generated on 2023-02-17 09:00:43 by Eclipse SUMO duarouter Version 1.10.0
<configuration xmlns:xsi="http://www.w3.org/2001/XMLSchema-instance" xsi:noNamespaceSchemaLocation="http://sumo.dlr.de/xsd/duarouterConfiguration.xsd">

    <input>
        <net-file value="/home/tedy/Sumo/script/Min-Plus/Sim/net/largeLdown.net.xml"/>
        <additional-files value="/home/tedy/Sumo/script/Min-Plus/add/0.8.add.xml"/>
        <route-files value="/home/tedy/Sumo/script/Min-Plus/AVOut/Routes/largeLdown/0.8/0.9.xml"/>
    </input>

    <output>
        <output-file value="routes.rou.xml"/>
        <alternatives-output value="routes.rou.alt.xml"/>
    </output>

    <time>
        <begin value="0"/>
        <end value="3600"/>
    </time>

    <report>
        <no-warnings value="true"/>
        <ignore-errors value="true"/>
        <no-step-log value="true"/>
    </report>

</configuration>
-->

<routes xmlns:xsi="http://www.w3.org/2001/XMLSchema-instance" xsi:noNamespaceSchemaLocation="http://sumo.dlr.de/xsd/routes_file.xsd">
    <vType id="type2" probability="0.80" color="green" carFollowModel="CACC"/>
    <vehicle id="0" type="type2" depart="0.00">
        <route edges="188991679 -188991679 774951529#4 178710333#3 161082236#2 -157593575#1 -157593575#0 157593585#2 157593585#3 -157593585#3"/>
    </vehicle>
    <vehicle id="1" type="type2" depart="0.90">
        <route edges="136100525#4 98818586#0 98818586#1 161226594#1 161226594#2 -161160022#0-AddedOffRampEdge 30061595#1 135438821#0-AddedOnRampEdge 135438821#0 135438821#2 135438821#3-AddedOnRampEdge 135438821#3-AddedOffRampEdge 696003165#0 135438820#0 135438820#1"/>
    </vehicle>
    <vType id="type1" minGap="1.50" probability="0.20" carFollowModel="Wiedemann" security="1" estimation="1"/>
    <vehicle id="2" type="type1" depart="1.80">
        <route edges="434711016#1 -434711016#1 -157613733 162698429 135438821#3-AddedOnRampEdge 135438821#3-AddedOffRampEdge 157623983 30055468 157623984 91797120 135435917#0-AddedOnRampEdge 135435917#0 135435917#1 157624004#0 157624004#2-AddedOnRampEdge 157624004#2 157624004#3 157624004#4 -157593575#1 157593575#1 161082236#4 161082236#5 161082236#6 161082236#7 30061595#1"/>
    </vehicle>
    <vehicle id="3" type="type2" depart="2.70">
        <route edges="774951529#2 774951529#3 774951529#4 178710333#3 161082236#2 -157593575#1 178710011#0 157593589#0 -188991678#1"/>
    </vehicle>
    <vehicle id="4" type="type2" depart="3.60">
        <route edges="161079029#0 135435917#0-AddedOnRampEdge 135435917#0 135435917#1 157624004#0 157624004#2-AddedOnRampEdge 157624004#2 157624004#3 157624004#4 -157593575#1 178710011#0 157593589#0 -157593589#0"/>
    </vehicle>
    <vehicle id="5" type="type1" depart="4.50">
        <route edges="135438820#1 161137084#1 161137084#2"/>
    </vehicle>
    <vehicle id="6" type="type2" depart="5.40">
        <route edges="-157593585#4 -157593585#3 188991676#1 161226594#2 -161160022#0-AddedOffRampEdge 30061595#1 135438821#0-AddedOnRampEdge 135438821#0 135438821#2 135438821#3-AddedOnRampEdge 135438821#3-AddedOffRampEdge 157623983 30055468 157623984 91797120 135435917#0-AddedOnRampEdge 135435917#0 135435917#1"/>
    </vehicle>
    <vehicle id="7" type="type2" depart="6.30">
        <route edges="190863687#0 -190863687#0 -486591150#1 517011636 205321875 157593569#0 157624004#4 -157593575#1 -157593575#0 157593585#2 188991676#1 161226594#2"/>
    </vehicle>
    <vehicle id="8" type="type2" depart="7.20">
        <route edges="135438820#1 161137084#1 161137082 161079029#0 135435917#0-AddedOnRampEdge 135435917#0 135435917#1 157624004#0 157624004#2-AddedOnRampEdge 157624004#2 157624004#3 157624004#4 328796535#1 774951529#1 774951529#2 774951529#3 178710008"/>
    </vehicle>
    <vehicle id="9" type="type2" depart="8.10">
        <route edges="490293776 490293775 490293774 490293772 490293771 52517588 91803470#0 161137082 161079029#0 135435917#0-AddedOnRampEdge 135435917#0 135435917#1 157624004#0 157624004#2-AddedOnRampEdge 157624004#2 157624004#3 157624004#4 -157593575#1 157593575#1 161082236#4 161082236#5 157593587 531228840 98818593#0 98818593#1 98818597#0 -157593573#0"/>
    </vehicle>
    <vehicle id="10" type="type1" depart="9.00">
        <route edges="490293776 490293775 490293774 490293772 490293771 52517588 91803470#0 161137082 161079029#0 135435917#0-AddedOnRampEdge 135435917#0 135435917#1 157624004#0 157624004#2-AddedOnRampEdge 157624004#2 157624004#3 157624004#4 328796530#0 328796530#2"/>
    </vehicle>
    <vehicle id="11" type="type2" depart="9.90">
        <route edges="157613731#0 162698414#0 490293775 490293774 490293772 490293771 52517588 91803470#0 161137082 161079029#0 135435917#0-AddedOnRampEdge 135435917#0 135435917#1 157624004#0 157624004#2-AddedOnRampEdge 157624004#2 157624004#3 157624004#4 -157593575#1 157593575#1 161082236#4 161082236#5 157593587 531228840 98818593#0 -486591150#2"/>
    </vehicle>
    <vehicle id="12" type="type2" depart="10.80">
        <route edges="91803470#0 161137082 696003166#0 490293777 157613731#0"/>
    </vehicle>
    <vehicle id="13" type="type2" depart="11.70">
        <route edges="-188991678#3 -178710011#1 -178710011#0 157593575#1 328796535#1 774951529#1 774951529#2 774951529#3 188991679 -188991679"/>
    </vehicle>
    <vehicle id="14" type="type2" depart="12.60">
        <route edges="67673620#0 135438821#0-AddedOnRampEdge 135438821#0 135438821#2 135438821#3-AddedOnRampEdge 135438821#3-AddedOffRampEdge 157623983 30055468 157623984 91797120 135435917#0-AddedOnRampEdge 135435917#0 135435917#1 157624004#0 157624004#2-AddedOnRampEdge 157624004#2 157624004#3 157624004#4 -157593575#1 178710011#0 178710011#1"/>
    </vehicle>
    <vehicle id="15" type="type2" depart="13.50">
        <route edges="490293776 490293775 490293774 490293772 490293771 163607589 490293777 157613731#0 696003184 449200768#0 449200768#1 -450056942 378308903"/>
    </vehicle>
    <vehicle id="16" type="type1" depart="14.40">
        <route edges="161226594#1 -188991676#1 157593585#3 157593585#4 98818586#1"/>
    </vehicle>
    <vehicle id="17" type="type2" depart="15.30">
        <route edges="157624004#0 157624004#2-AddedOnRampEdge 157624004#2 157624004#3 157624004#4 -157593575#1 157593575#1 161082236#4 161082236#5 161082236#6 161082236#7 161160022#0-AddedOffRampEdge gneE6 161226595"/>
    </vehicle>
    <vehicle id="19" type="type2" depart="17.10">
        <route edges="696003182 135438820#0 135438820#1 696003166#0 490293777 490293776 490293775 490293774 490293772 490293771 163607589"/>
    </vehicle>
    <vehicle id="21" type="type2" depart="18.90">
        <route edges="135438821#0 135438821#2 135438821#3-AddedOnRampEdge 135438821#3-AddedOffRampEdge 157623983 30055468 157623984 91797120 135435917#0-AddedOnRampEdge 135435917#0 135435917#1 157624004#0 157624004#2-AddedOnRampEdge 157624004#2 157593585#0 157593585#1 157593575#0"/>
    </vehicle>
    <vehicle id="22" type="type2" depart="19.80">
        <route edges="-188991676#0 -178710011#0 157593575#1 161082236#4 161082236#5 161082236#6 161082236#7 30061595#1 135438821#0-AddedOnRampEdge 135438821#0"/>
    </vehicle>
    <vehicle id="23" type="type2" depart="20.70">
        <route edges="-190863687#0 -486591150#1 517011636 205321875 157593569#0 157624004#4 328796530#0 334320888#25 -178710009#1 178710007 136100525#4 136100525#5"/>
    </vehicle>
    <vehicle id="24" type="type2" depart="21.60">
        <route edges="188991678#2 -178710011#1 -178710011#0 157593575#1 161082236#4 161082236#5 161082236#6 161082236#7 30061595#1 135438821#0-AddedOnRampEdge 135438821#0 135438821#2 135438821#3-AddedOnRampEdge 135438821#3-AddedOffRampEdge 157623983"/>
    </vehicle>
    <vehicle id="26" type="type2" depart="23.40">
        <route edges="136100525#3 136100525#4 98818586#0 98818586#1 161226594#1 161226594#2 -161160022#0-AddedOffRampEdge 30061595#1 135438821#0-AddedOnRampEdge 135438821#0 135438821#2 135438821#3-AddedOnRampEdge 135438821#3-AddedOffRampEdge 696003165#0 135438820#0 135438820#1 161137084#1 161137084#2 889606511#0"/>
    </vehicle>
    <vehicle id="27" type="type2" depart="24.30">
        <route edges="190863687#0 -190863687#0 -486591150#1 517011636 205321875 774951529#0 774951529#1 774951529#2 774951529#3 774951529#4 774951529#5 774951529#6 774951529#7 -178710330 178710330"/>
    </vehicle>
    <vehicle id="28" type="type2" depart="25.20">
        <route edges="-98818593#1 -98818593#0 -531228840 98818592 161082236#7 30061595#1 135438821#0-AddedOnRampEdge 135438821#0 135438821#2 135438821#3-AddedOnRampEdge 135438821#3-AddedOffRampEdge 696003165#0 135438820#0 157613730#0 157613730#1 157613730#2 378308903"/>
    </vehicle>
    <vehicle id="29" type="type2" depart="26.10">
        <route edges="-849560195 162698414#0 490293775 490293774 490293772 490293771 52517588 91803470#0 161137082 161079029#0 135435917#0-AddedOnRampEdge 135435917#0 135435917#1 157624004#0"/>
    </vehicle>
    <vehicle id="30" type="type1" depart="27.00">
        <route edges="98820020 -98820020 774951529#2 774951529#3 188991679"/>
    </vehicle>
    <vehicle id="32" type="type2" depart="28.80">
        <route edges="662128500 157613728#0 -205344381#0 162698429 135438821#3-AddedOnRampEdge 135438821#3-AddedOffRampEdge 696003165#0 135438820#0 135438820#1 696003166#0 490293777 490293776 490293775 490293774 490293772 490293771"/>
    </vehicle>
    <vehicle id="33" type="type1" depart="29.70">
        <route edges="135438821#0 135438821#2 135438821#3-AddedOnRampEdge 135438821#3-AddedOffRampEdge 157623983 30055468 157623984 91797120 135435917#0-AddedOnRampEdge 135435917#0 135435917#1 157624004#0 157624004#2-AddedOnRampEdge 157624004#2 157624004#3 157624004#4 -157593575#1 178710011#0 157593589#0 157593589#1 -157593589#1"/>
    </vehicle>
    <vehicle id="36" type="type2" depart="32.40">
        <route edges="705407678#1 705407678#3 490293772 490293771 52517588 91803470#0 161137082 161079029#0 135435917#0-AddedOnRampEdge 135435917#0 135435917#1 157624004#0 157624004#2-AddedOnRampEdge 157624004#2 157624004#3 157624004#4 -157593575#1 178710011#0 157593589#0 157593589#1"/>
    </vehicle>
    <vehicle id="37" type="type2" depart="33.30">
        <route edges="205321875 157593569#0 161082236#5 161082236#6 161082236#7 157624004#0 157624004#2-AddedOnRampEdge"/>
    </vehicle>
    <vehicle id="39" type="type1" depart="35.10">
        <route edges="136100525#3 136100525#4 98818586#0 98818586#1 161226594#1 161226594#2 -161160022#0-AddedOffRampEdge 30061595#1 135438821#0-AddedOnRampEdge 135438821#0 135438821#2"/>
    </vehicle>
    <vehicle id="41" type="type2" depart="36.90">
        <route edges="178710007 -178710007 178710009#1 -334320888#25 161082236#1 161082236#2 328796535#1 774951529#1 774951529#2 774951529#3 774951529#4"/>
    </vehicle>
    <vehicle id="42" type="type2" depart="37.80">
        <route edges="157624004#2-AddedOnRampEdge 157624004#2 157624004#3 157624004#4 -157593575#1 157593575#1 161082236#4 161082236#5 161082236#6 161082236#7 30061595#1 135438821#0-AddedOnRampEdge 135438821#0 135438821#2 135438821#3-AddedOnRampEdge 135438821#3-AddedOffRampEdge 696003165#0 135438820#0 135438820#1"/>
    </vehicle>
    <vehicle id="44" type="type1" depart="39.60">
        <route edges="-188991678#2 -188991678#1 157593585#4 98818586#1 161226594#1 161226594#2 -161160022#0-AddedOffRampEdge"/>
    </vehicle>
    <vehicle id="45" type="type2" depart="40.50">
        <route edges="-205344381#1 -205344381#0 162698429 135438821#3-AddedOnRampEdge 135438821#3-AddedOffRampEdge 157623983 30055468 157623984 91797120 135435917#0-AddedOnRampEdge 135435917#0 135435917#1 157624004#0 157624004#2-AddedOnRampEdge 157624004#2 157593585#0 157593585#1 157593585#2 188991676#1"/>
    </vehicle>
    <vehicle id="46" type="type2" depart="41.40">
        <route edges="490293774 490293772 490293771 52517588 91803470#0 161137082 161079029#0"/>
    </vehicle>
    <vehicle id="47" type="type2" depart="42.30">
        <route edges="-178710010 178710010 178710009#0 178710009#1 -334320888#25 161082236#1 161082236#2 161082236#4 161082236#5 161082236#6 161082236#7 157624004#0"/>
    </vehicle>
    <vehicle id="49" type="type2" depart="44.10">
        <route edges="98818586#0 98818586#1 161226594#1 161226594#2 -161160022#0-AddedOffRampEdge 30061595#1 135438821#0-AddedOnRampEdge 135438821#0 135438821#2 135438821#3-AddedOnRampEdge 135438821#3-AddedOffRampEdge 696003165#0 135438820#0 157613730#0 91803472 696003182"/>
    </vehicle>
    <vehicle id="50" type="type2" depart="45.00">
        <route edges="-157593575#1 157593575#1 161082236#4 161082236#5 161082236#6 161082236#7 30061595#1 135438821#0-AddedOnRampEdge 135438821#0 135438821#2 135438821#3-AddedOnRampEdge 135438821#3-AddedOffRampEdge 696003165#0 135438820#0 135438820#1 696003166#0 490293777 490293776 490293775 490293774 91797118#0 350526748#0"/>
    </vehicle>
    <vehicle id="51" type="type2" depart="45.90">
        <route edges="30061694#0 161137082 161079029#0 135435917#0-AddedOnRampEdge 135435917#0 135435917#1 157624004#0 157624004#2-AddedOnRampEdge 157624004#2 157593585#0 157593585#1 157593585#2 157593585#3 157593585#4 98818586#1 161226594#1"/>
    </vehicle>
    <vehicle id="52" type="type2" depart="46.80">
        <route edges="136100525#3 -178710007 178710009#1 -334320888#25 161082236#1 161082236#2 328796535#1 774951529#1 774951529#2 774951529#3 188991679"/>
    </vehicle>
    <vehicle id="54" type="type2" depart="48.60">
        <route edges="161082236#4 161082236#5 161082236#6 161082236#7 30061595#1 135438821#0-AddedOnRampEdge 135438821#0 135438821#2 135438821#3-AddedOnRampEdge 135438821#3-AddedOffRampEdge 157623983 30055468 157623984 91797120"/>
    </vehicle>
    <vehicle id="56" type="type2" depart="50.40">
        <route edges="161137084#1 161137082 161079029#0 135435917#0-AddedOnRampEdge 135435917#0"/>
    </vehicle>
    <vehicle id="58" type="type1" depart="52.20">
        <route edges="157593585#2 157593585#3 188991678#1 188991678#2 188991678#3"/>
    </vehicle>
    <vehicle id="60" type="type1" depart="54.00">
        <route edges="486591150#2 -98818593#0 -531228840 98818592 161082236#7 157624004#0 157624004#2-AddedOnRampEdge 157624004#2 157593585#0 157593585#1 157593585#2 157593585#3 157593585#4 98818586#1 161226594#1"/>
    </vehicle>
    <vehicle id="61" type="type2" depart="54.90">
        <route edges="490293772 490293771 52517588 91803470#0 161137082 161079029#0 135435917#0-AddedOnRampEdge 135435917#0 135435917#1 157624004#0 157624004#2-AddedOnRampEdge 157624004#2 157593585#0 157593585#1 157593585#2 157593585#3 157593585#4 98818586#1 161226594#1"/>
    </vehicle>
    <vehicle id="62" type="type1" depart="55.80">
        <route edges="-134967443 -434711016#1 -157613733 205344381#0 157613728#1"/>
    </vehicle>
    <vehicle id="63" type="type1" depart="56.70">
        <route edges="-157593585#1 157593585#1 157593575#0 157593575#1 161082236#4 161082236#5 161082236#6 161082236#7 30061595#1 135438821#0-AddedOnRampEdge 135438821#0 135438821#2 135438821#3-AddedOnRampEdge 135438821#3-AddedOffRampEdge 696003165#0 135438820#0 135438820#1 161137084#1 161137084#2 889606511#0"/>
    </vehicle>
    <vehicle id="64" type="type2" depart="57.60">
        <route edges="705407678#3 490293772 490293771 52517588 91803470#0 161137082 161079029#0 135435917#0-AddedOnRampEdge 135435917#0 135435917#1 157624004#0 157624004#2-AddedOnRampEdge 157624004#2 157624004#3 157624004#4 -157593575#1 157593575#1 161082236#4 161082236#5 157593587 531228840"/>
    </vehicle>
    <vehicle id="65" type="type2" depart="58.50">
        <route edges="157593587 98818592 161082236#7 157624004#0 157624004#2-AddedOnRampEdge 157624004#2 157624004#3 157624004#4 328796530#0 334320888#25 -178710009#1 -178710009#0"/>
    </vehicle>
    <vehicle id="66" type="type2" depart="59.40">
        <route edges="705407678#3 91797118#0"/>
    </vehicle>
    <vehicle id="67" type="type1" depart="60.30">
        <route edges="-188991678#0 188991678#0 157593585#4 98818586#1 161226594#1 161226594#2 -161160022#0-AddedOffRampEdge 30061595#1 135438821#0-AddedOnRampEdge 135438821#0 135438821#2 135438821#3-AddedOnRampEdge 135438821#3-AddedOffRampEdge 696003165#0 135438820#0 135438820#1 696003166#0 490293777 490293776 490293775 490293774 490293772 490293771 52517588 161137073#0"/>
    </vehicle>
    <vehicle id="68" type="type1" depart="61.20">
        <route edges="-178710011#1 -178710011#0 157593575#1 161082236#4 161082236#5 157593587 531228840 98818593#0 -486591150#2 -486591150#1 486591150#1"/>
    </vehicle>
    <vehicle id="69" type="type2" depart="62.10">
        <route edges="489018488#2 -205344381#1 -205344381#0 162698429 135438821#3-AddedOnRampEdge 135438821#3-AddedOffRampEdge 157623983 30055468 157623984 91797120 135435917#0-AddedOnRampEdge 135435917#0 135435917#1 157624004#0 157624004#2-AddedOnRampEdge 157624004#2 157624004#3 157624004#4 328796530#0 334320888#25 -334320888#25"/>
    </vehicle>
    <vehicle id="70" type="type2" depart="63.00">
        <route edges="161082236#7 157624004#0 157624004#2-AddedOnRampEdge 157624004#2 157593585#0 157593585#1 157593585#2 188991676#1 161226594#2"/>
    </vehicle>
    <vehicle id="73" type="type2" depart="65.70">
        <route edges="161226594#1 161226594#2 -161160022#0-AddedOffRampEdge 30061595#1 135438821#0-AddedOnRampEdge 135438821#0 135438821#2 135438821#3-AddedOnRampEdge 135438821#3-AddedOffRampEdge 696003165#0 135438820#0 157613730#0 157613730#1 157613730#2 378308903"/>
    </vehicle>
    <vehicle id="74" type="type2" depart="66.60">
        <route edges="135435917#1 157624004#0 157624004#2-AddedOnRampEdge 157624004#2 157624004#3 157624004#4 -157593575#1 178710011#0 157593589#0"/>
    </vehicle>
    <vehicle id="76" type="type1" depart="68.40">
        <route edges="161082236#1 161082236#2 161082236#4 161082236#5 161082236#6 161082236#7 161160022#0-AddedOffRampEdge"/>
    </vehicle>
    <vehicle id="77" type="type1" depart="69.30">
        <route edges="-334320888#22 334320888#21 334320888#23 161082236#1 161082236#2 161082236#4 161082236#5 161082236#6 161082236#7 30061595#1 135438821#0-AddedOnRampEdge 135438821#0 135438821#2 135438821#3-AddedOnRampEdge 135438821#3-AddedOffRampEdge 696003165#0 135438820#0 135438820#1"/>
    </vehicle>
    <vehicle id="78" type="type2" depart="70.20">
        <route edges="157613731#0 162698414#0 490293775 490293774 490293772 490293771 52517588 91803470#0 161137082 161079029#0 135435917#0-AddedOnRampEdge 135435917#0 135435917#1 157624004#0 157624004#2-AddedOnRampEdge 157624004#2 157624004#3 157624004#4 328796535#1 774951529#1 774951529#2 774951529#3 178710008"/>
    </vehicle>
    <vehicle id="79" type="type2" depart="71.10">
        <route edges="135438821#0 135438821#2 135438821#3-AddedOnRampEdge 135438821#3-AddedOffRampEdge 696003165#0 135438820#0 135438820#1"/>
    </vehicle>
    <vehicle id="80" type="type2" depart="72.00">
        <route edges="-178710011#1 157593589#0 -188991678#1 188991678#1"/>
    </vehicle>
    <vehicle id="81" type="type2" depart="72.90">
        <route edges="135438821#0 135438821#2 135438821#3-AddedOnRampEdge 135438821#3-AddedOffRampEdge 157623983 30055468 157623984 91797120 135435917#0-AddedOnRampEdge 135435917#0 135435917#1 157624004#0 157624004#2-AddedOnRampEdge 157624004#2 157624004#3 157624004#4 328796535#1 774951529#1 774951529#2 774951529#3 774951529#4 774951529#5 774951529#6"/>
    </vehicle>
    <vehicle id="82" type="type2" depart="73.80">
        <route edges="696003182 135438820#0 135438820#1 161137084#1 161137082 161079029#0 135435917#0-AddedOnRampEdge 135435917#0 135435917#1 157624004#0 157624004#2-AddedOnRampEdge 157624004#2 157624004#3 157624004#4 -157593575#1 178710011#0 178710011#1 -178710011#1"/>
    </vehicle>
    <vehicle id="83" type="type2" depart="74.70">
        <route edges="135438821#0-AddedOnRampEdge 135438821#0 135438821#2 135438821#3-AddedOnRampEdge 135438821#3-AddedOffRampEdge 157623983 30055468"/>
    </vehicle>
    <vehicle id="84" type="type2" depart="75.60">
        <route edges="135438820#0 157613730#0 157613730#1 157613730#2 378308903 662128500 -378308904"/>
    </vehicle>
    <vehicle id="86" type="type2" depart="77.40">
        <route edges="161082236#6 161082236#7 30061595#1 135438821#0-AddedOnRampEdge 135438821#0 135438821#2 135438821#3-AddedOnRampEdge 135438821#3-AddedOffRampEdge 696003165#0 135438820#0 135438820#1 696003166#0 490293777 490293776 490293775 490293774 490293772"/>
    </vehicle>
    <vehicle id="87" type="type2" depart="78.30">
        <route edges="490293776 490293775 490293774 490293772 490293771 52517588 91803470#0 161137082 161079029#0 135435917#0-AddedOnRampEdge"/>
    </vehicle>
    <vehicle id="89" type="type2" depart="80.10">
        <route edges="161079029#0 135435917#0-AddedOnRampEdge 135435917#0 135435917#1 157624004#0 157624004#2-AddedOnRampEdge 157624004#2 157624004#3 157624004#4 -157593575#1 157593575#1 161082236#4 161082236#5 161082236#6"/>
    </vehicle>
    <vehicle id="90" type="type2" depart="81.00">
        <route edges="378308903 157613736#1 157613736#2 696003182 135438820#0 135438820#1 161137084#1 161137082 161079029#0 135435917#0-AddedOnRampEdge 135435917#0 135435917#1 157624004#0 157624004#2-AddedOnRampEdge 157624004#2 157624004#3 157624004#4 -157593575#1 157593575#1 161082236#4 161082236#5 161082236#6 161082236#7 30061595#1"/>
    </vehicle>
    <vehicle id="91" type="type2" depart="81.90">
        <route edges="98818593#1 98818597#0 -157593573#0 -98818593#1 -98818593#0 -531228840 98818592 161082236#7 157624004#0 157624004#2-AddedOnRampEdge 157624004#2 157593585#0 -188991866"/>
    </vehicle>
    <vehicle id="92" type="type1" depart="82.80">
        <route edges="157624004#2-AddedOnRampEdge 157624004#2 157624004#3 157624004#4 -157593575#1 157593575#1 161082236#4 161082236#5 161082236#6 161082236#7 30061595#1 135438821#0-AddedOnRampEdge 135438821#0 135438821#2 135438821#3-AddedOnRampEdge 135438821#3-AddedOffRampEdge 696003165#0 135438820#0 135438820#1 696003166#0 490293777 157613731#0"/>
    </vehicle>
    <vehicle id="93" type="type2" depart="83.70">
        <route edges="696003182 135438820#0 135438820#1 161137084#1 161137082 161079029#0 135435917#0-AddedOnRampEdge 135435917#0 135435917#1 157624004#0 157624004#2-AddedOnRampEdge 157624004#2 157624004#3 157624004#4 -157593575#1 157593575#1 161082236#4 161082236#5 161082236#6 161082236#7 30061595#1 135438821#0-AddedOnRampEdge 135438821#0 135438821#2"/>
    </vehicle>
    <vehicle id="94" type="type1" depart="84.60">
        <route edges="135435917#0-AddedOnRampEdge 135435917#0 135435917#1 157624004#0 157624004#2-AddedOnRampEdge 157624004#2 157624004#3 157624004#4 -157593575#1 157593575#1 161082236#4"/>
    </vehicle>
    <vehicle id="95" type="type2" depart="85.50">
        <route edges="161079029#0 135435917#0-AddedOnRampEdge 135435917#0 135435917#1 157624004#0 157624004#2-AddedOnRampEdge 157624004#2 157624004#3 157624004#4 328796530#0 334320888#25 -178710009#1 178710007 136100525#4 136100525#5"/>
    </vehicle>
    <vehicle id="97" type="type2" depart="87.30">
        <route edges="161082236#2 161082236#4 161082236#5 161082236#6 161082236#7 30061595#1 135438821#0-AddedOnRampEdge 135438821#0 135438821#2 135438821#3-AddedOnRampEdge 135438821#3-AddedOffRampEdge 696003165#0 135438820#0 157613730#0 91803472 696003182"/>
    </vehicle>
    <vehicle id="100" type="type2" depart="90.00">
        <route edges="98818586#0 98818586#1 161226594#1 161226594#2 -161160022#0-AddedOffRampEdge 30061595#1 135438821#0-AddedOnRampEdge 135438821#0 847781131"/>
    </vehicle>
    <vehicle id="101" type="type2" depart="90.90">
        <route edges="696003165#0 135438820#0 135438820#1 161137084#1 161137082 161079029#0 135435917#0-AddedOnRampEdge 135435917#0 135435917#1 157624004#0 157624004#2-AddedOnRampEdge 157624004#2 157624004#3 157624004#4 -157593575#1 157593575#1 161082236#4 161082236#5 157593587 531228840 98818593#0 -98818593#0"/>
    </vehicle>
    <vehicle id="103" type="type2" depart="92.70">
        <route edges="157624004#2-AddedOnRampEdge 157624004#2 157624004#3 157624004#4 328796530#0 334320888#25 -178710009#1 -178710009#0"/>
    </vehicle>
    <vehicle id="104" type="type2" depart="93.60">
        <route edges="157624004#0 157624004#2-AddedOnRampEdge 157624004#2 157624004#3 157624004#4 -157593575#1 157593575#1 161082236#4 161082236#5 157593587 531228840 98818593#0 98818593#1"/>
    </vehicle>
    <vehicle id="105" type="type2" depart="94.50">
        <route edges="136100525#3 136100525#4 98818586#0 98818586#1 161226594#1 161226594#2 -161160022#0-AddedOffRampEdge 30061595#1 135438821#0-AddedOnRampEdge 135438821#0 135438821#2 135438821#3-AddedOnRampEdge 135438821#3-AddedOffRampEdge 696003165#0 135438820#0 135438820#1 696003166#0 490293777 490293776 490293775 490293774 490293772"/>
    </vehicle>
    <vehicle id="106" type="type2" depart="95.40">
        <route edges="161082236#4 161082236#5 161082236#6 161082236#7 30061595#1 135438821#0-AddedOnRampEdge 135438821#0 135438821#2 135438821#3-AddedOnRampEdge 135438821#3-AddedOffRampEdge 696003165#0 135438820#0 135438820#1 161137084#1 161137082 161079029#0"/>
    </vehicle>
    <vehicle id="107" type="type2" depart="96.30">
        <route edges="91803470#0 161137082 161079029#0 135435917#0-AddedOnRampEdge 135435917#0 135435917#1 161160022#0-AddedOffRampEdge gneE6"/>
    </vehicle>
    <vehicle id="109" type="type1" depart="98.10">
        <route edges="-486591150#2 486591150#2 -98818593#0 -531228840 98818592 161082236#7 157624004#0 157624004#2-AddedOnRampEdge 157624004#2 157593585#0 157593585#1"/>
    </vehicle>
    <vehicle id="110" type="type2" depart="99.00">
        <route edges="98818586#0 98818586#1 161226594#1 161226594#2 -161160022#0-AddedOffRampEdge 30061595#1 135438821#0-AddedOnRampEdge 135438821#0 847781131 205344381#0 205344381#1 157613736#0 157613736#1 168607768#0"/>
    </vehicle>
    <vehicle id="111" type="type2" depart="99.90">
        <route edges="161226594#2 -161160022#0-AddedOffRampEdge 30061595#1 135438821#0-AddedOnRampEdge 135438821#0 135438821#2 135438821#3-AddedOnRampEdge 135438821#3-AddedOffRampEdge 696003165#0 135438820#0 157613730#0 157613730#1 157613730#2 450056942"/>
    </vehicle>
    <vehicle id="112" type="type2" depart="100.80">
        <route edges="-178710007 178710009#1 -334320888#25 161082236#1 161082236#2 161082236#4 161082236#5 161082236#6 161082236#7 30061595#1 135438821#0-AddedOnRampEdge 135438821#0 135438821#2 135438821#3-AddedOnRampEdge 135438821#3-AddedOffRampEdge 696003165#0 135438820#0 157613730#0 157613730#1 168607768#1"/>
    </vehicle>
    <vehicle id="113" type="type2" depart="101.70">
        <route edges="161137084#1 161137082 161079029#0 135435917#0-AddedOnRampEdge 135435917#0 847781131 162698429 135438821#3-AddedOnRampEdge 135438821#3-AddedOffRampEdge 696003165#0"/>
    </vehicle>
    <vehicle id="114" type="type2" depart="102.60">
        <route edges="-486591150#2 486591150#2 -98818593#0 -531228840 98818592 161082236#7 30061595#1 135438821#0-AddedOnRampEdge 135438821#0 135438821#2 135438821#3-AddedOnRampEdge 135438821#3-AddedOffRampEdge 696003165#0 135438820#0 135438820#1 696003166#0 490293777 490293776 490293775 490293774 490293772 490293771 52517588 91803470#0"/>
    </vehicle>
    <vehicle id="115" type="type1" depart="103.50">
        <route edges="-188991676#0 -178710011#0 157593575#1 161082236#4 161082236#5 161082236#6 161082236#7 30061595#1 135438821#0-AddedOnRampEdge 135438821#0 135438821#2 135438821#3-AddedOnRampEdge 135438821#3-AddedOffRampEdge 157623983 30055468 157623984 91797120 135435917#0-AddedOnRampEdge 135435917#0"/>
    </vehicle>
    <vehicle id="116" type="type2" depart="104.40">
        <route edges="178710009#1 -334320888#25 161082236#1 161082236#2 161082236#4 161082236#5 161082236#6 161082236#7 30061595#1"/>
    </vehicle>
    <vehicle id="117" type="type1" depart="105.30">
        <route edges="135438821#0-AddedOnRampEdge 135438821#0 135438821#2 135438821#3-AddedOnRampEdge 135438821#3-AddedOffRampEdge 157623983 30055468 157623984 91797120 135435917#0-AddedOnRampEdge 135435917#0 135435917#1 157624004#0 157624004#2-AddedOnRampEdge 157624004#2 157624004#3 157624004#4 328796530#0 334320888#25 -178710009#1 -178710009#0 333545536 -333545536"/>
    </vehicle>
    <vehicle id="118" type="type2" depart="106.20">
        <route edges="774951529#1 774951529#2 774951529#3 774951529#4 178710333#3 161082236#2 161082236#4 161082236#5 161082236#6 161082236#7 30061595#1 135438821#0-AddedOnRampEdge 135438821#0 135438821#2"/>
    </vehicle>
    <vehicle id="119" type="type2" depart="107.10">
        <route edges="178710009#1 -334320888#25 161082236#1 161082236#2 328796535#1 774951529#1 774951529#2 774951529#3 774951529#4 178710333#3"/>
    </vehicle>
    <vehicle id="120" type="type2" depart="108.00">
        <route edges="157624004#4 -157593575#1 157593575#1 161082236#4 161082236#5 161082236#6 161082236#7 30061595#1 135438821#0-AddedOnRampEdge 135438821#0 135438821#2 135438821#3-AddedOnRampEdge 135438821#3-AddedOffRampEdge 696003165#0 135438820#0 157613730#0 157613730#1 168607768#1"/>
    </vehicle>
    <vehicle id="121" type="type1" depart="108.90">
        <route edges="161226594#0 161226594#1 161226594#2 -161160022#0-AddedOffRampEdge 30061595#1 135438821#0-AddedOnRampEdge 135438821#0 135438821#2 135438821#3-AddedOnRampEdge 135438821#3-AddedOffRampEdge 696003165#0 135438820#0 135438820#1 161137084#1 161137084#2 889606511#0"/>
    </vehicle>
    <vehicle id="122" type="type2" depart="109.80">
        <route edges="135438818#0 157624004#0 157624004#2-AddedOnRampEdge 157624004#2 157624004#3 157624004#4 328796530#0 334320888#25"/>
    </vehicle>
    <vehicle id="123" type="type2" depart="110.70">