<?xml version="1.0" encoding="UTF-8"?>

<!-- generated on 2022-09-15 12:40:24 by Eclipse SUMO duarouter Version 1.10.0
<configuration xmlns:xsi="http://www.w3.org/2001/XMLSchema-instance" xsi:noNamespaceSchemaLocation="http://sumo.dlr.de/xsd/duarouterConfiguration.xsd">

    <input>
        <net-file value="/home/tedy/Sumo/script/Min-Plus/Sim/net/SktP.net.xml"/>
        <route-files value="trips.trips.xml"/>
    </input>

    <output>
        <output-file value="trips.trips.xml.tmp"/>
        <write-trips value="true"/>
    </output>

    <time>
        <begin value="0"/>
        <end value="3600"/>
    </time>

    <report>
        <no-warnings value="true"/>
        <ignore-errors value="true"/>
        <no-step-log value="true"/>
    </report>

</configuration>
-->

<routes xmlns:xsi="http://www.w3.org/2001/XMLSchema-instance" xsi:noNamespaceSchemaLocation="http://sumo.dlr.de/xsd/routes_file.xsd">
    <trip id="1" depart="1.00" from="136100522#1" to="136100522#1"/>
    <trip id="2" depart="2.00" from="230878792#0" to="230878792#0"/>
    <trip id="4" depart="4.00" from="136100522#1" to="136100522#1"/>
    <trip id="6" depart="6.00" from="136100522#1" to="136100522#1"/>
    <trip id="7" depart="7.00" from="230878792#0" to="230878792#0"/>
    <trip id="10" depart="10.00" from="230878792#0" to="230878792#0"/>
    <trip id="11" depart="11.00" from="136100522#1" to="136100522#1"/>
    <trip id="13" depart="13.00" from="136100522#1" to="136100522#1"/>
    <trip id="14" depart="14.00" from="230878792#0" to="230878792#0"/>
    <trip id="15" depart="15.00" from="230878792#0" to="230878792#0"/>
    <trip id="16" depart="16.00" from="230878792#0" to="230878792#0"/>
    <trip id="18" depart="18.00" from="230878792#0" to="230878792#0"/>
    <trip id="19" depart="19.00" from="230878792#0" to="230878792#0"/>
    <trip id="21" depart="21.00" from="136100522#1" to="136100522#1"/>
    <trip id="22" depart="22.00" from="136100522#1" to="136100522#1"/>
    <trip id="23" depart="23.00" from="136100522#1" to="136100522#1"/>
    <trip id="25" depart="25.00" from="136100522#1" to="136100522#1"/>
    <trip id="27" depart="27.00" from="230878792#0" to="230878792#0"/>
    <trip id="29" depart="29.00" from="136100522#1" to="136100522#1"/>
    <trip id="30" depart="30.00" from="230878792#0" to="230878792#0"/>
    <trip id="31" depart="31.00" from="230878792#0" to="230878792#0"/>
    <trip id="32" depart="32.00" from="230878792#0" to="230878792#0"/>
    <trip id="33" depart="33.00" from="136100522#1" to="136100522#1"/>
    <trip id="34" depart="34.00" from="136100522#1" to="136100522#1"/>
    <trip id="39" depart="39.00" from="136100522#1" to="136100522#1"/>
    <trip id="41" depart="41.00" from="230878792#0" to="230878792#0"/>
    <trip id="42" depart="42.00" from="136100522#1" to="136100522#1"/>
    <trip id="43" depart="43.00" from="230878792#0" to="230878792#0"/>
    <trip id="44" depart="44.00" from="136100522#1" to="136100522#1"/>
    <trip id="47" depart="47.00" from="136100522#1" to="136100522#1"/>
    <trip id="48" depart="48.00" from="230878792#0" to="230878792#0"/>
    <trip id="49" depart="49.00" from="230878792#0" to="230878792#0"/>
    <trip id="51" depart="51.00" from="230878792#0" to="230878792#0"/>
    <trip id="53" depart="53.00" from="136100522#1" to="136100522#1"/>
    <trip id="57" depart="57.00" from="230878792#0" to="230878792#0"/>
    <trip id="60" depart="60.00" from="230878792#0" to="230878792#0"/>
    <trip id="61" depart="61.00" from="230878792#0" to="230878792#0"/>
    <trip id="62" depart="62.00" from="136100522#1" to="136100522#1"/>
    <trip id="64" depart="64.00" from="230878792#0" to="230878792#0"/>
    <trip id="65" depart="65.00" from="136100522#1" to="136100522#1"/>
    <trip id="66" depart="66.00" from="230878792#0" to="230878792#0"/>
    <trip id="67" depart="67.00" from="136100522#1" to="136100522#1"/>
    <trip id="72" depart="72.00" from="136100522#1" to="136100522#1"/>
    <trip id="73" depart="73.00" from="230878792#0" to="230878792#0"/>
    <trip id="74" depart="74.00" from="136100522#1" to="136100522#1"/>
    <trip id="75" depart="75.00" from="230878792#0" to="230878792#0"/>
    <trip id="77" depart="77.00" from="136100522#1" to="136100522#1"/>
    <trip id="79" depart="79.00" from="136100522#1" to="136100522#1"/>
    <trip id="84" depart="84.00" from="136100522#1" to="136100522#1"/>
    <trip id="85" depart="85.00" from="230878792#0" to="230878792#0"/>
    <trip id="88" depart="88.00" from="136100522#1" to="136100522#1"/>
    <trip id="89" depart="89.00" from="136100522#1" to="136100522#1"/>
    <trip id="90" depart="90.00" from="230878792#0" to="230878792#0"/>
    <trip id="92" depart="92.00" from="136100522#1" to="136100522#1"/>
    <trip id="94" depart="94.00" from="136100522#1" to="136100522#1"/>
    <trip id="95" depart="95.00" from="136100522#1" to="136100522#1"/>
    <trip id="99" depart="99.00" from="230878792#0" to="230878792#0"/>
    <trip id="100" depart="100.00" from="230878792#0" to="230878792#0"/>
    <trip id="102" depart="102.00" from="136100522#1" to="136100522#1"/>
    <trip id="103" depart="103.00" from="136100522#1" to="136100522#1"/>
    <trip id="106" depart="106.00" from="136100522#1" to="136100522#1"/>
    <trip id="107" depart="107.00" from="230878792#0" to="230878792#0"/>
    <trip id="108" depart="108.00" from="230878792#0" to="230878792#0"/>
    <trip id="109" depart="109.00" from="136100522#1" to="136100522#1"/>
    <trip id="110" depart="110.00" from="230878792#0" to="230878792#0"/>
    <trip id="111" depart="111.00" from="230878792#0" to="230878792#0"/>
    <trip id="113" depart="113.00" from="230878792#0" to="230878792#0"/>
    <trip id="115" depart="115.00" from="136100522#1" to="136100522#1"/>
    <trip id="116" depart="116.00" from="230878792#0" to="230878792#0"/>
    <trip id="117" depart="117.00" from="136100522#1" to="136100522#1"/>
    <trip id="119" depart="119.00" from="230878792#0" to="230878792#0"/>
    <trip id="121" depart="121.00" from="230878792#0" to="230878792#0"/>
    <trip id="123" depart="123.00" from="136100522#1" to="136100522#1"/>
    <trip id="126" depart="126.00" from="136100522#1" to="136100522#1"/>
    <trip id="127" depart="127.00" from="230878792#0" to="230878792#0"/>
    <trip id="128" depart="128.00" from="136100522#1" to="136100522#1"/>
    <trip id="130" depart="130.00" from="230878792#0" to="230878792#0"/>
    <trip id="131" depart="131.00" from="136100522#1" to="136100522#1"/>
    <trip id="132" depart="132.00" from="230878792#0" to="230878792#0"/>
    <trip id="133" depart="133.00" from="230878792#0" to="230878792#0"/>
    <trip id="136" depart="136.00" from="230878792#0" to="230878792#0"/>
    <trip id="137" depart="137.00" from="136100522#1" to="136100522#1"/>
    <trip id="144" depart="144.00" from="136100522#1" to="136100522#1"/>
    <trip id="147" depart="147.00" from="230878792#0" to="230878792#0"/>
    <trip id="148" depart="148.00" from="136100522#1" to="136100522#1"/>
    <trip id="150" depart="150.00" from="230878792#0" to="230878792#0"/>
    <trip id="151" depart="151.00" from="230878792#0" to="230878792#0"/>
    <trip id="152" depart="152.00" from="136100522#1" to="136100522#1"/>
    <trip id="154" depart="154.00" from="230878792#0" to="230878792#0"/>
    <trip id="156" depart="156.00" from="136100522#1" to="136100522#1"/>
    <trip id="157" depart="157.00" from="230878792#0" to="230878792#0"/>
    <trip id="160" depart="160.00" from="230878792#0" to="230878792#0"/>
    <trip id="161" depart="161.00" from="230878792#0" to="230878792#0"/>
    <trip id="164" depart="164.00" from="230878792#0" to="230878792#0"/>
    <trip id="167" depart="167.00" from="230878792#0" to="230878792#0"/>
    <trip id="169" depart="169.00" from="136100522#1" to="136100522#1"/>
    <trip id="171" depart="171.00" from="136100522#1" to="136100522#1"/>
    <trip id="175" depart="175.00" from="230878792#0" to="230878792#0"/>
    <trip id="179" depart="179.00" from="136100522#1" to="136100522#1"/>
    <trip id="181" depart="181.00" from="230878792#0" to="230878792#0"/>
    <trip id="185" depart="185.00" from="230878792#0" to="230878792#0"/>
    <trip id="186" depart="186.00" from="230878792#0" to="230878792#0"/>
    <trip id="187" depart="187.00" from="136100522#1" to="136100522#1"/>
    <trip id="191" depart="191.00" from="136100522#1" to="136100522#1"/>
    <trip id="192" depart="192.00" from="136100522#1" to="136100522#1"/>
    <trip id="193" depart="193.00" from="136100522#1" to="136100522#1"/>
    <trip id="194" depart="194.00" from="230878792#0" to="230878792#0"/>
    <trip id="195" depart="195.00" from="230878792#0" to="230878792#0"/>
    <trip id="197" depart="197.00" from="136100522#1" to="136100522#1"/>
    <trip id="200" depart="200.00" from="136100522#1" to="136100522#1"/>
    <trip id="205" depart="205.00" from="230878792#0" to="230878792#0"/>
    <trip id="207" depart="207.00" from="136100522#1" to="136100522#1"/>
    <trip id="208" depart="208.00" from="136100522#1" to="136100522#1"/>
    <trip id="212" depart="212.00" from="136100522#1" to="136100522#1"/>
    <trip id="214" depart="214.00" from="230878792#0" to="230878792#0"/>
    <trip id="215" depart="215.00" from="136100522#1" to="136100522#1"/>
    <trip id="220" depart="220.00" from="230878792#0" to="230878792#0"/>
    <trip id="221" depart="221.00" from="230878792#0" to="230878792#0"/>
    <trip id="222" depart="222.00" from="230878792#0" to="230878792#0"/>
    <trip id="223" depart="223.00" from="230878792#0" to="230878792#0"/>
    <trip id="224" depart="224.00" from="230878792#0" to="230878792#0"/>
    <trip id="225" depart="225.00" from="230878792#0" to="230878792#0"/>
    <trip id="226" depart="226.00" from="136100522#1" to="136100522#1"/>
    <trip id="228" depart="228.00" from="230878792#0" to="230878792#0"/>
    <trip id="230" depart="230.00" from="136100522#1" to="136100522#1"/>
    <trip id="231" depart="231.00" from="136100522#1" to="136100522#1"/>
    <trip id="236" depart="236.00" from="136100522#1" to="136100522#1"/>
    <trip id="238" depart="238.00" from="230878792#0" to="230878792#0"/>
    <trip id="239" depart="239.00" from="230878792#0" to="230878792#0"/>
    <trip id="240" depart="240.00" from="136100522#1" to="136100522#1"/>
    <trip id="242" depart="242.00" from="230878792#0" to="230878792#0"/>
    <trip id="244" depart="244.00" from="230878792#0" to="230878792#0"/>
    <trip id="245" depart="245.00" from="136100522#1" to="136100522#1"/>
    <trip id="246" depart="246.00" from="136100522#1" to="136100522#1"/>
    <trip id="248" depart="248.00" from="136100522#1" to="136100522#1"/>
    <trip id="249" depart="249.00" from="136100522#1" to="136100522#1"/>
    <trip id="253" depart="253.00" from="136100522#1" to="136100522#1"/>
    <trip id="254" depart="254.00" from="136100522#1" to="136100522#1"/>
    <trip id="255" depart="255.00" from="136100522#1" to="136100522#1"/>
    <trip id="257" depart="257.00" from="230878792#0" to="230878792#0"/>
    <trip id="258" depart="258.00" from="136100522#1" to="136100522#1"/>
    <trip id="261" depart="261.00" from="230878792#0" to="230878792#0"/>
    <trip id="262" depart="262.00" from="230878792#0" to="230878792#0"/>
    <trip id="264" depart="264.00" from="136100522#1" to="136100522#1"/>
    <trip id="267" depart="267.00" from="230878792#0" to="230878792#0"/>
    <trip id="270" depart="270.00" from="230878792#0" to="230878792#0"/>
    <trip id="271" depart="271.00" from="136100522#1" to="136100522#1"/>
    <trip id="275" depart="275.00" from="230878792#0" to="230878792#0"/>
    <trip id="277" depart="277.00" from="230878792#0" to="230878792#0"/>
    <trip id="280" depart="280.00" from="136100522#1" to="136100522#1"/>
    <trip id="282" depart="282.00" from="230878792#0" to="230878792#0"/>
    <trip id="284" depart="284.00" from="230878792#0" to="230878792#0"/>
    <trip id="286" depart="286.00" from="230878792#0" to="230878792#0"/>
    <trip id="294" depart="294.00" from="136100522#1" to="136100522#1"/>
    <trip id="302" depart="302.00" from="230878792#0" to="230878792#0"/>
    <trip id="304" depart="304.00" from="136100522#1" to="136100522#1"/>
    <trip id="310" depart="310.00" from="136100522#1" to="136100522#1"/>
    <trip id="311" depart="311.00" from="136100522#1" to="136100522#1"/>
    <trip id="312" depart="312.00" from="230878792#0" to="230878792#0"/>
    <trip id="313" depart="313.00" from="136100522#1" to="136100522#1"/>
    <trip id="315" depart="315.00" from="230878792#0" to="230878792#0"/>
    <trip id="316" depart="316.00" from="136100522#1" to="136100522#1"/>
    <trip id="317" depart="317.00" from="136100522#1" to="136100522#1"/>
    <trip id="318" depart="318.00" from="136100522#1" to="136100522#1"/>
    <trip id="320" depart="320.00" from="230878792#0" to="230878792#0"/>
    <trip id="323" depart="323.00" from="230878792#0" to="230878792#0"/>
    <trip id="324" depart="324.00" from="136100522#1" to="136100522#1"/>
    <trip id="325" depart="325.00" from="136100522#1" to="136100522#1"/>
    <trip id="329" depart="329.00" from="136100522#1" to="136100522#1"/>
    <trip id="332" depart="332.00" from="230878792#0" to="230878792#0"/>
    <trip id="337" depart="337.00" from="230878792#0" to="230878792#0"/>
    <trip id="338" depart="338.00" from="230878792#0" to="230878792#0"/>
    <trip id="339" depart="339.00" from="136100522#1" to="136100522#1"/>
    <trip id="341" depart="341.00" from="136100522#1" to="136100522#1"/>
    <trip id="342" depart="342.00" from="136100522#1" to="136100522#1"/>
    <trip id="346" depart="346.00" from="230878792#0" to="230878792#0"/>
    <trip id="347" depart="347.00" from="230878792#0" to="230878792#0"/>
    <trip id="348" depart="348.00" from="230878792#0" to="230878792#0"/>
    <trip id="350" depart="350.00" from="230878792#0" to="230878792#0"/>
    <trip id="352" depart="352.00" from="136100522#1" to="136100522#1"/>
    <trip id="353" depart="353.00" from="230878792#0" to="230878792#0"/>
    <trip id="354" depart="354.00" from="136100522#1" to="136100522#1"/>
    <trip id="355" depart="355.00" from="230878792#0" to="230878792#0"/>
    <trip id="356" depart="356.00" from="230878792#0" to="230878792#0"/>
    <trip id="357" depart="357.00" from="136100522#1" to="136100522#1"/>
    <trip id="358" depart="358.00" from="136100522#1" to="136100522#1"/>
    <trip id="359" depart="359.00" from="136100522#1" to="136100522#1"/>
    <trip id="361" depart="361.00" from="230878792#0" to="230878792#0"/>
    <trip id="362" depart="362.00" from="230878792#0" to="230878792#0"/>
    <trip id="367" depart="367.00" from="230878792#0" to="230878792#0"/>
    <trip id="368" depart="368.00" from="136100522#1" to="136100522#1"/>
    <trip id="369" depart="369.00" from="136100522#1" to="136100522#1"/>
    <trip id="370" depart="370.00" from="230878792#0" to="230878792#0"/>
    <trip id="373" depart="373.00" from="230878792#0" to="230878792#0"/>
    <trip id="374" depart="374.00" from="136100522#1" to="136100522#1"/>
    <trip id="377" depart="377.00" from="230878792#0" to="230878792#0"/>
    <trip id="379" depart="379.00" from="136100522#1" to="136100522#1"/>
    <trip id="380" depart="380.00" from="230878792#0" to="230878792#0"/>
    <trip id="382" depart="382.00" from="230878792#0" to="230878792#0"/>
    <trip id="388" depart="388.00" from="230878792#0" to="230878792#0"/>
    <trip id="389" depart="389.00" from="136100522#1" to="136100522#1"/>
    <trip id="391" depart="391.00" from="230878792#0" to="230878792#0"/>
    <trip id="395" depart="395.00" from="230878792#0" to="230878792#0"/>
    <trip id="396" depart="396.00" from="230878792#0" to="230878792#0"/>
    <trip id="399" depart="399.00" from="230878792#0" to="230878792#0"/>
    <trip id="400" depart="400.00" from="136100522#1" to="136100522#1"/>
    <trip id="401" depart="401.00" from="230878792#0" to="230878792#0"/>
    <trip id="402" depart="402.00" from="136100522#1" to="136100522#1"/>
    <trip id="404" depart="404.00" from="230878792#0" to="230878792#0"/>
    <trip id="405" depart="405.00" from="136100522#1" to="136100522#1"/>
    <trip id="409" depart="409.00" from="230878792#0" to="230878792#0"/>
    <trip id="411" depart="411.00" from="230878792#0" to="230878792#0"/>
    <trip id="414" depart="414.00" from="230878792#0" to="230878792#0"/>
    <trip id="421" depart="421.00" from="230878792#0" to="230878792#0"/>
    <trip id="422" depart="422.00" from="230878792#0" to="230878792#0"/>
    <trip id="423" depart="423.00" from="136100522#1" to="136100522#1"/>
    <trip id="424" depart="424.00" from="230878792#0" to="230878792#0"/>
    <trip id="427" depart="427.00" from="230878792#0" to="230878792#0"/>
    <trip id="431" depart="431.00" from="230878792#0" to="230878792#0"/>
    <trip id="433" depart="433.00" from="136100522#1" to="136100522#1"/>
    <trip id="435" depart="435.00" from="230878792#0" to="230878792#0"/>
    <trip id="436" depart="436.00" from="136100522#1" to="136100522#1"/>
    <trip id="437" depart="437.00" from="230878792#0" to="230878792#0"/>
    <trip id="439" depart="439.00" from="136100522#1" to="136100522#1"/>
    <trip id="440" depart="440.00" from="136100522#1" to="136100522#1"/>
    <trip id="442" depart="442.00" from="230878792#0" to="230878792#0"/>
    <trip id="443" depart="443.00" from="136100522#1" to="136100522#1"/>
    <trip id="447" depart="447.00" from="136100522#1" to="136100522#1"/>
    <trip id="448" depart="448.00" from="136100522#1" to="136100522#1"/>
    <trip id="449" depart="449.00" from="230878792#0" to="230878792#0"/>
    <trip id="451" depart="451.00" from="230878792#0" to="230878792#0"/>
    <trip id="453" depart="453.00" from="230878792#0" to="230878792#0"/>
    <trip id="458" depart="458.00" from="230878792#0" to="230878792#0"/>
    <trip id="459" depart="459.00" from="230878792#0" to="230878792#0"/>
    <trip id="460" depart="460.00" from="230878792#0" to="230878792#0"/>
    <trip id="461" depart="461.00" from="230878792#0" to="230878792#0"/>
    <trip id="466" depart="466.00" from="136100522#1" to="136100522#1"/>
    <trip id="467" depart="467.00" from="230878792#0" to="230878792#0"/>
    <trip id="468" depart="468.00" from="230878792#0" to="230878792#0"/>
    <trip id="471" depart="471.00" from="230878792#0" to="230878792#0"/>
    <trip id="472" depart="472.00" from="136100522#1" to="136100522#1"/>
    <trip id="474" depart="474.00" from="230878792#0" to="230878792#0"/>
    <trip id="475" depart="475.00" from="230878792#0" to="230878792#0"/>
    <trip id="476" depart="476.00" from="230878792#0" to="230878792#0"/>
    <trip id="480" depart="480.00" from="230878792#0" to="230878792#0"/>
    <trip id="481" depart="481.00" from="230878792#0" to="230878792#0"/>
    <trip id="482" depart="482.00" from="136100522#1" to="136100522#1"/>
    <trip id="484" depart="484.00" from="230878792#0" to="230878792#0"/>
    <trip id="485" depart="485.00" from="136100522#1" to="136100522#1"/>
    <trip id="486" depart="486.00" from="230878792#0" to="230878792#0"/>
    <trip id="487" depart="487.00" from="136100522#1" to="136100522#1"/>
    <trip id="489" depart="489.00" from="136100522#1" to="136100522#1"/>
    <trip id="491" depart="491.00" from="136100522#1" to="136100522#1"/>
    <trip id="492" depart="492.00" from="230878792#0" to="230878792#0"/>
    <trip id="495" depart="495.00" from="136100522#1" to="136100522#1"/>
    <trip id="496" depart="496.00" from="136100522#1" to="136100522#1"/>
    <trip id="498" depart="498.00" from="136100522#1" to="136100522#1"/>
    <trip id="499" depart="499.00" from="230878792#0" to="230878792#0"/>
    <trip id="501" depart="501.00" from="230878792#0" to="230878792#0"/>
    <trip id="502" depart="502.00" from="136100522#1" to="136100522#1"/>
    <trip id="503" depart="503.00" from="136100522#1" to="136100522#1"/>
    <trip id="505" depart="505.00" from="230878792#0" to="230878792#0"/>
    <trip id="510" depart="510.00" from="136100522#1" to="136100522#1"/>
    <trip id="514" depart="514.00" from="136100522#1" to="136100522#1"/>
    <trip id="515" depart="515.00" from="136100522#1" to="136100522#1"/>
    <trip id="518" depart="518.00" from="136100522#1" to="136100522#1"/>
    <trip id="519" depart="519.00" from="136100522#1" to="136100522#1"/>
    <trip id="520" depart="520.00" from="230878792#0" to="230878792#0"/>
    <trip id="522" depart="522.00" from="230878792#0" to="230878792#0"/>
    <trip id="525" depart="525.00" from="230878792#0" to="230878792#0"/>
    <trip id="528" depart="528.00" from="136100522#1" to="136100522#1"/>
    <trip id="532" depart="532.00" from="136100522#1" to="136100522#1"/>
    <trip id="533" depart="533.00" from="230878792#0" to="230878792#0"/>
    <trip id="537" depart="537.00" from="230878792#0" to="230878792#0"/>
    <trip id="538" depart="538.00" from="230878792#0" to="230878792#0"/>
    <trip id="540" depart="540.00" from="136100522#1" to="136100522#1"/>
    <trip id="541" depart="541.00" from="136100522#1" to="136100522#1"/>
    <trip id="542" depart="542.00" from="136100522#1" to="136100522#1"/>
    <trip id="544" depart="544.00" from="136100522#1" to="136100522#1"/>
    <trip id="548" depart="548.00" from="230878792#0" to="230878792#0"/>
    <trip id="549" depart="549.00" from="230878792#0" to="230878792#0"/>
    <trip id="550" depart="550.00" from="136100522#1" to="136100522#1"/>
    <trip id="552" depart="552.00" from="230878792#0" to="230878792#0"/>
    <trip id="553" depart="553.00" from="230878792#0" to="230878792#0"/>
    <trip id="559" depart="559.00" from="230878792#0" to="230878792#0"/>
    <trip id="560" depart="560.00" from="230878792#0" to="230878792#0"/>
    <trip id="561" depart="561.00" from="230878792#0" to="230878792#0"/>
    <trip id="563" depart="563.00" from="230878792#0" to="230878792#0"/>
    <trip id="564" depart="564.00" from="136100522#1" to="136100522#1"/>
    <trip id="566" depart="566.00" from="136100522#1" to="136100522#1"/>
    <trip id="567" depart="567.00" from="230878792#0" to="230878792#0"/>
    <trip id="568" depart="568.00" from="136100522#1" to="136100522#1"/>
    <trip id="571" depart="571.00" from="136100522#1" to="136100522#1"/>
    <trip id="573" depart="573.00" from="230878792#0" to="230878792#0"/>
    <trip id="574" depart="574.00" from="136100522#1" to="136100522#1"/>
    <trip id="578" depart="578.00" from="136100522#1" to="136100522#1"/>
    <trip id="580" depart="580.00" from="136100522#1" to="136100522#1"/>
    <trip id="584" depart="584.00" from="136100522#1" to="136100522#1"/>
    <trip id="585" depart="585.00" from="136100522#1" to="136100522#1"/>
    <trip id="586" depart="586.00" from="136100522#1" to="136100522#1"/>
    <trip id="588" depart="588.00" from="136100522#1" to="136100522#1"/>
    <trip id="589" depart="589.00" from="230878792#0" to="230878792#0"/>
    <trip id="590" depart="590.00" from="230878792#0" to="230878792#0"/>
    <trip id="592" depart="592.00" from="136100522#1" to="136100522#1"/>
    <trip id="593" depart="593.00" from="230878792#0" to="230878792#0"/>
    <trip id="594" depart="594.00" from="230878792#0" to="230878792#0"/>
    <trip id="596" depart="596.00" from="136100522#1" to="136100522#1"/>
    <trip id="598" depart="598.00" from="230878792#0" to="230878792#0"/>
    <trip id="601" depart="601.00" from="230878792#0" to="230878792#0"/>
    <trip id="602" depart="602.00" from="136100522#1" to="136100522#1"/>
    <trip id="603" depart="603.00" from="136100522#1" to="136100522#1"/>
    <trip id="607" depart="607.00" from="230878792#0" to="230878792#0"/>
    <trip id="609" depart="609.00" from="136100522#1" to="136100522#1"/>
    <trip id="610" depart="610.00" from="230878792#0" to="230878792#0"/>
    <trip id="613" depart="613.00" from="230878792#0" to="230878792#0"/>
    <trip id="615" depart="615.00" from="230878792#0" to="230878792#0"/>
    <trip id="616" depart="616.00" from="230878792#0" to="230878792#0"/>
    <trip id="618" depart="618.00" from="136100522#1" to="136100522#1"/>
    <trip id="619" depart="619.00" from="136100522#1" to="136100522#1"/>
    <trip id="621" depart="621.00" from="136100522#1" to="136100522#1"/>
    <trip id="624" depart="624.00" from="230878792#0" to="230878792#0"/>
    <trip id="626" depart="626.00" from="230878792#0" to="230878792#0"/>
    <trip id="628" depart="628.00" from="230878792#0" to="230878792#0"/>
    <trip id="629" depart="629.00" from="136100522#1" to="136100522#1"/>
    <trip id="630" depart="630.00" from="136100522#1" to="136100522#1"/>
    <trip id="634" depart="634.00" from="136100522#1" to="136100522#1"/>
    <trip id="636" depart="636.00" from="136100522#1" to="136100522#1"/>
    <trip id="637" depart="637.00" from="136100522#1" to="136100522#1"/>
    <trip id="639" depart="639.00" from="230878792#0" to="230878792#0"/>
    <trip id="640" depart="640.00" from="136100522#1" to="136100522#1"/>
    <trip id="642" depart="642.00" from="230878792#0" to="230878792#0"/>
    <trip id="643" depart="643.00" from="230878792#0" to="230878792#0"/>
    <trip id="645" depart="645.00" from="136100522#1" to="136100522#1"/>
    <trip id="646" depart="646.00" from="230878792#0" to="230878792#0"/>
    <trip id="650" depart="650.00" from="230878792#0" to="230878792#0"/>
    <trip id="651" depart="651.00" from="230878792#0" to="230878792#0"/>
    <trip id="652" depart="652.00" from="230878792#0" to="230878792#0"/>
    <trip id="654" depart="654.00" from="136100522#1" to="136100522#1"/>
    <trip id="655" depart="655.00" from="136100522#1" to="136100522#1"/>
    <trip id="657" depart="657.00" from="136100522#1" to="136100522#1"/>
    <trip id="660" depart="660.00" from="230878792#0" to="230878792#0"/>
    <trip id="661" depart="661.00" from="136100522#1" to="136100522#1"/>
    <trip id="663" depart="663.00" from="136100522#1" to="136100522#1"/>
    <trip id="664" depart="664.00" from="230878792#0" to="230878792#0"/>
    <trip id="666" depart="666.00" from="136100522#1" to="136100522#1"/>
    <trip id="668" depart="668.00" from="136100522#1" to="136100522#1"/>
    <trip id="673" depart="673.00" from="230878792#0" to="230878792#0"/>
    <trip id="674" depart="674.00" from="136100522#1" to="136100522#1"/>
    <trip id="676" depart="676.00" from="230878792#0" to="230878792#0"/>
    <trip id="679" depart="679.00" from="230878792#0" to="230878792#0"/>
    <trip id="685" depart="685.00" from="136100522#1" to="136100522#1"/>
    <trip id="686" depart="686.00" from="136100522#1" to="136100522#1"/>
    <trip id="689" depart="689.00" from="136100522#1" to="136100522#1"/>
    <trip id="690" depart="690.00" from="230878792#0" to="230878792#0"/>
    <trip id="691" depart="691.00" from="230878792#0" to="230878792#0"/>
    <trip id="692" depart="692.00" from="136100522#1" to="136100522#1"/>
    <trip id="693" depart="693.00" from="230878792#0" to="230878792#0"/>
    <trip id="695" depart="695.00" from="136100522#1" to="136100522#1"/>
    <trip id="696" depart="696.00" from="136100522#1" to="136100522#1"/>
    <trip id="697" depart="697.00" from="230878792#0" to="230878792#0"/>
    <trip id="698" depart="698.00" from="230878792#0" to="230878792#0"/>
    <trip id="699" depart="699.00" from="136100522#1" to="136100522#1"/>
    <trip id="700" depart="700.00" from="136100522#1" to="136100522#1"/>
    <trip id="702" depart="702.00" from="136100522#1" to="136100522#1"/>
    <trip id="703" depart="703.00" from="230878792#0" to="230878792#0"/>
    <trip id="705" depart="705.00" from="136100522#1" to="136100522#1"/>
    <trip id="707" depart="707.00" from="136100522#1" to="136100522#1"/>
    <trip id="710" depart="710.00" from="230878792#0" to="230878792#0"/>
    <trip id="711" depart="711.00" from="230878792#0" to="230878792#0"/>
    <trip id="712" depart="712.00" from="136100522#1" to="136100522#1"/>
    <trip id="713" depart="713.00" from="230878792#0" to="230878792#0"/>
    <trip id="714" depart="714.00" from="136100522#1" to="136100522#1"/>
    <trip id="716" depart="716.00" from="230878792#0" to="230878792#0"/>
    <trip id="717" depart="717.00" from="230878792#0" to="230878792#0"/>
    <trip id="718" depart="718.00" from="136100522#1" to="136100522#1"/>
    <trip id="719" depart="719.00" from="230878792#0" to="230878792#0"/>
    <trip id="722" depart="722.00" from="230878792#0" to="230878792#0"/>
    <trip id="724" depart="724.00" from="136100522#1" to="136100522#1"/>
    <trip id="725" depart="725.00" from="136100522#1" to="136100522#1"/>
    <trip id="727" depart="727.00" from="230878792#0" to="230878792#0"/>
    <trip id="732" depart="732.00" from="136100522#1" to="136100522#1"/>
    <trip id="733" depart="733.00" from="230878792#0" to="230878792#0"/>
    <trip id="737" depart="737.00" from="230878792#0" to="230878792#0"/>
    <trip id="739" depart="739.00" from="230878792#0" to="230878792#0"/>
    <trip id="744" depart="744.00" from="136100522#1" to="136100522#1"/>
    <trip id="747" depart="747.00" from="230878792#0" to="230878792#0"/>
    <trip id="750" depart="750.00" from="230878792#0" to="230878792#0"/>
    <trip id="754" depart="754.00" from="136100522#1" to="136100522#1"/>
    <trip id="755" depart="755.00" from="230878792#0" to="230878792#0"/>
    <trip id="756" depart="756.00" from="230878792#0" to="230878792#0"/>
    <trip id="758" depart="758.00" from="230878792#0" to="230878792#0"/>
    <trip id="760" depart="760.00" from="136100522#1" to="136100522#1"/>
    <trip id="763" depart="763.00" from="136100522#1" to="136100522#1"/>
    <trip id="766" depart="766.00" from="136100522#1" to="136100522#1"/>
    <trip id="771" depart="771.00" from="136100522#1" to="136100522#1"/>
    <trip id="772" depart="772.00" from="230878792#0" to="230878792#0"/>
    <trip id="773" depart="773.00" from="230878792#0" to="230878792#0"/>
    <trip id="774" depart="774.00" from="230878792#0" to="230878792#0"/>
    <trip id="775" depart="775.00" from="230878792#0" to="230878792#0"/>
    <trip id="776" depart="776.00" from="136100522#1" to="136100522#1"/>