<?xml version="1.0" encoding="UTF-8"?>

<!-- generated on 2022-12-09 11:04:02 by Eclipse SUMO duarouter Version 1.10.0
<configuration xmlns:xsi="http://www.w3.org/2001/XMLSchema-instance" xsi:noNamespaceSchemaLocation="http://sumo.dlr.de/xsd/duarouterConfiguration.xsd">

    <input>
        <net-file value="/home/tedy/Sumo/script/Min-Plus/Sim/net/Metro-SktP.net.xml"/>
        <route-files value="trips.trips.xml"/>
    </input>

    <output>
        <output-file value="trips.trips.xml.tmp"/>
        <write-trips value="true"/>
    </output>

    <time>
        <begin value="0"/>
        <end value="3600"/>
    </time>

    <report>
        <no-warnings value="true"/>
        <ignore-errors value="true"/>
        <no-step-log value="true"/>
    </report>

</configuration>
-->

<routes xmlns:xsi="http://www.w3.org/2001/XMLSchema-instance" xsi:noNamespaceSchemaLocation="http://sumo.dlr.de/xsd/routes_file.xsd">
    <trip id="3" depart="3.00" from="694407546" to="-230878791#2"/>
    <trip id="4" depart="4.00" from="230878791#2" to="-15874743#0"/>
    <trip id="5" depart="5.00" from="136100518#0" to="305384998#0"/>
    <trip id="6" depart="6.00" from="-15874743#0" to="-305384994#0"/>
    <trip id="7" depart="7.00" from="69119564#2" to="39349400#0"/>
    <trip id="8" depart="8.00" from="136100518#0" to="39349400#0"/>
    <trip id="11" depart="11.00" from="230878791#0" to="-305384994#0"/>
    <trip id="13" depart="13.00" from="-230878791#2" to="-230878791#2"/>
    <trip id="17" depart="17.00" from="230878791#0" to="39349400#0"/>
    <trip id="19" depart="19.00" from="694407545" to="39349400#0"/>
    <trip id="21" depart="21.00" from="136100518#0" to="15874743#0"/>
    <trip id="27" depart="27.00" from="69119564#2" to="69119564#2"/>
    <trip id="32" depart="32.00" from="694407545" to="694407544"/>
    <trip id="34" depart="34.00" from="15874743#0" to="15874743#0"/>
    <trip id="35" depart="35.00" from="136100518#0" to="82914449"/>
    <trip id="36" depart="36.00" from="694407546" to="15874743#0"/>
    <trip id="39" depart="39.00" from="136100518#0" to="136100518#0"/>
    <trip id="43" depart="43.00" from="82914449" to="305384998#0"/>
    <trip id="48" depart="48.00" from="82914449" to="305384998#0"/>
    <trip id="49" depart="49.00" from="82914449" to="694407545"/>
    <trip id="51" depart="51.00" from="69119564#3" to="39349400#0"/>
    <trip id="54" depart="54.00" from="230878791#2" to="82914449"/>
    <trip id="57" depart="57.00" from="694407546" to="694407546"/>
    <trip id="59" depart="59.00" from="69119564#2" to="-305384994#0"/>
    <trip id="60" depart="60.00" from="694407544" to="39349400#0"/>
    <trip id="61" depart="61.00" from="694407544" to="305384998#0"/>
    <trip id="62" depart="62.00" from="-15874743#0" to="15874743#0"/>
    <trip id="63" depart="63.00" from="-15874743#0" to="694407546"/>
    <trip id="64" depart="64.00" from="694407546" to="694407545"/>
    <trip id="66" depart="66.00" from="694407546" to="82914449"/>
    <trip id="67" depart="67.00" from="-230878791#2" to="305384998#0"/>
    <trip id="69" depart="69.00" from="694407544" to="-230878791#2"/>
    <trip id="71" depart="71.00" from="136100518#0" to="694407546"/>
    <trip id="74" depart="74.00" from="136100518#0" to="15874743#0"/>
    <trip id="76" depart="76.00" from="230878791#2" to="305384998#0"/>
    <trip id="78" depart="78.00" from="230878791#0" to="39349400#0"/>
    <trip id="79" depart="79.00" from="136100518#0" to="136100518#0"/>
    <trip id="81" depart="81.00" from="136100518#0" to="694407546"/>
    <trip id="82" depart="82.00" from="694407545" to="-230878791#2"/>
    <trip id="84" depart="84.00" from="136100518#0" to="-230878791#2"/>
    <trip id="85" depart="85.00" from="82914449" to="39349400#0"/>
    <trip id="87" depart="87.00" from="694407545" to="-305384994#0"/>
    <trip id="89" depart="89.00" from="230878791#2" to="305384998#0"/>
    <trip id="90" depart="90.00" from="69119564#3" to="69119564#3"/>
    <trip id="91" depart="91.00" from="82914449" to="-230878791#2"/>
    <trip id="95" depart="95.00" from="230878791#2" to="15874743#0"/>
    <trip id="96" depart="96.00" from="136100518#0" to="694407546"/>
    <trip id="97" depart="97.00" from="230878791#2" to="694407545"/>
    <trip id="99" depart="99.00" from="82914449" to="694407545"/>
    <trip id="100" depart="100.00" from="82914449" to="694407546"/>
    <trip id="101" depart="101.00" from="694407545" to="-305384994#0"/>
    <trip id="103" depart="103.00" from="230878791#2" to="-15874743#0"/>
    <trip id="104" depart="104.00" from="230878791#0" to="82914449"/>
    <trip id="105" depart="105.00" from="136100518#0" to="694407544"/>
    <trip id="106" depart="106.00" from="230878791#2" to="230878791#2"/>
    <trip id="107" depart="107.00" from="82914449" to="82914449"/>
    <trip id="110" depart="110.00" from="82914449" to="39349400#0"/>
    <trip id="112" depart="112.00" from="-15874743#0" to="39349400#0"/>
    <trip id="117" depart="117.00" from="136100518#0" to="-230878791#2"/>
    <trip id="120" depart="120.00" from="230878791#2" to="39349400#0"/>
    <trip id="124" depart="124.00" from="69119564#3" to="15874743#0"/>
    <trip id="127" depart="127.00" from="82914449" to="82914449"/>
    <trip id="129" depart="129.00" from="136100518#0" to="694407546"/>
    <trip id="130" depart="130.00" from="694407546" to="694407546"/>
    <trip id="131" depart="131.00" from="230878791#0" to="-305384994#0"/>
    <trip id="133" depart="133.00" from="69119564#2" to="82914449"/>
    <trip id="135" depart="135.00" from="694407545" to="15874743#0"/>
    <trip id="136" depart="136.00" from="69119564#2" to="82914449"/>
    <trip id="137" depart="137.00" from="-305384994#0" to="-230878791#2"/>
    <trip id="143" depart="143.00" from="694407545" to="-230878791#2"/>
    <trip id="144" depart="144.00" from="230878791#2" to="15874743#0"/>
    <trip id="145" depart="145.00" from="-15874743#0" to="694407544"/>
    <trip id="147" depart="147.00" from="694407544" to="39349400#0"/>
    <trip id="148" depart="148.00" from="230878791#2" to="-15874743#0"/>
    <trip id="150" depart="150.00" from="694407546" to="39349400#0"/>
    <trip id="151" depart="151.00" from="694407545" to="39349400#0"/>
    <trip id="152" depart="152.00" from="-305384994#0" to="-230878791#2"/>
    <trip id="154" depart="154.00" from="694407544" to="694407545"/>
    <trip id="156" depart="156.00" from="136100518#0" to="-230878791#2"/>
    <trip id="157" depart="157.00" from="694407544" to="694407546"/>
    <trip id="160" depart="160.00" from="694407545" to="82914449"/>
    <trip id="161" depart="161.00" from="694407545" to="694407546"/>
    <trip id="162" depart="162.00" from="-15874743#0" to="694407544"/>
    <trip id="164" depart="164.00" from="694407545" to="694407545"/>
    <trip id="165" depart="165.00" from="694407545" to="15874743#0"/>
    <trip id="166" depart="166.00" from="694407544" to="-230878791#2"/>
    <trip id="167" depart="167.00" from="694407546" to="694407545"/>
    <trip id="168" depart="168.00" from="136100518#0" to="694407545"/>
    <trip id="169" depart="169.00" from="230878791#2" to="15874743#0"/>
    <trip id="171" depart="171.00" from="-15874743#0" to="-305384994#0"/>
    <trip id="173" depart="173.00" from="82914449" to="15874743#0"/>
    <trip id="175" depart="175.00" from="82914449" to="39349400#0"/>
    <trip id="176" depart="176.00" from="82914449" to="-230878791#2"/>
    <trip id="177" depart="177.00" from="82914449" to="-305384994#0"/>
    <trip id="180" depart="180.00" from="69119564#3" to="15874743#0"/>
    <trip id="181" depart="181.00" from="69119564#2" to="305384998#0"/>
    <trip id="182" depart="182.00" from="230878791#0" to="39349400#0"/>
    <trip id="184" depart="184.00" from="-15874743#0" to="694407546"/>
    <trip id="187" depart="187.00" from="230878791#0" to="-230878791#2"/>
    <trip id="188" depart="188.00" from="69119564#2" to="15874743#0"/>
    <trip id="190" depart="190.00" from="69119564#3" to="15874743#0"/>
    <trip id="192" depart="192.00" from="230878791#2" to="15874743#0"/>
    <trip id="197" depart="197.00" from="-15874743#0" to="15874743#0"/>
    <trip id="198" depart="198.00" from="230878791#2" to="39349400#0"/>
    <trip id="202" depart="202.00" from="694407544" to="-305384994#0"/>
    <trip id="203" depart="203.00" from="-230878791#2" to="305384998#0"/>
    <trip id="205" depart="205.00" from="694407545" to="694407544"/>
    <trip id="208" depart="208.00" from="136100518#0" to="305384998#0"/>
    <trip id="209" depart="209.00" from="694407545" to="-230878791#2"/>
    <trip id="214" depart="214.00" from="694407544" to="694407544"/>
    <trip id="218" depart="218.00" from="136100518#0" to="694407545"/>
    <trip id="219" depart="219.00" from="230878791#2" to="694407545"/>
    <trip id="220" depart="220.00" from="69119564#3" to="82914449"/>
    <trip id="223" depart="223.00" from="69119564#3" to="305384998#0"/>
    <trip id="224" depart="224.00" from="694407545" to="39349400#0"/>
    <trip id="225" depart="225.00" from="694407546" to="694407544"/>
    <trip id="228" depart="228.00" from="694407544" to="305384998#0"/>
    <trip id="229" depart="229.00" from="69119564#2" to="15874743#0"/>
    <trip id="231" depart="231.00" from="15874743#0" to="15874743#0"/>
    <trip id="235" depart="235.00" from="230878791#2" to="39349400#0"/>
    <trip id="237" depart="237.00" from="230878791#2" to="694407546"/>
    <trip id="239" depart="239.00" from="694407545" to="694407544"/>
    <trip id="240" depart="240.00" from="230878791#0" to="-15874743#0"/>
    <trip id="241" depart="241.00" from="230878791#0" to="694407544"/>
    <trip id="242" depart="242.00" from="694407545" to="82914449"/>
    <trip id="243" depart="243.00" from="230878791#2" to="694407544"/>
    <trip id="245" depart="245.00" from="136100518#0" to="136100518#0"/>
    <trip id="246" depart="246.00" from="230878791#2" to="-15874743#0"/>
    <trip id="248" depart="248.00" from="230878791#2" to="-305384994#0"/>
    <trip id="251" depart="251.00" from="230878791#0" to="39349400#0"/>
    <trip id="255" depart="255.00" from="136100518#0" to="15874743#0"/>
    <trip id="257" depart="257.00" from="694407544" to="694407545"/>
    <trip id="258" depart="258.00" from="136100518#0" to="-230878791#2"/>
    <trip id="259" depart="259.00" from="-15874743#0" to="39349400#0"/>
    <trip id="261" depart="261.00" from="69119564#2" to="694407544"/>
    <trip id="262" depart="262.00" from="69119564#2" to="694407544"/>
    <trip id="263" depart="263.00" from="82914449" to="-305384994#0"/>
    <trip id="264" depart="264.00" from="-15874743#0" to="-305384994#0"/>
    <trip id="267" depart="267.00" from="69119564#3" to="694407544"/>
    <trip id="269" depart="269.00" from="694407544" to="-230878791#2"/>
    <trip id="270" depart="270.00" from="694407545" to="82914449"/>
    <trip id="274" depart="274.00" from="69119564#3" to="-230878791#2"/>
    <trip id="282" depart="282.00" from="694407545" to="694407545"/>
    <trip id="284" depart="284.00" from="69119564#2" to="694407545"/>
    <trip id="286" depart="286.00" from="694407544" to="82914449"/>
    <trip id="291" depart="291.00" from="694407545" to="-230878791#2"/>
    <trip id="294" depart="294.00" from="230878791#0" to="-15874743#0"/>
    <trip id="295" depart="295.00" from="694407545" to="-305384994#0"/>
    <trip id="296" depart="296.00" from="136100518#0" to="694407544"/>
    <trip id="297" depart="297.00" from="230878791#0" to="694407546"/>
    <trip id="298" depart="298.00" from="69119564#3" to="15874743#0"/>
    <trip id="299" depart="299.00" from="-15874743#0" to="82914449"/>
    <trip id="305" depart="305.00" from="69119564#3" to="15874743#0"/>
    <trip id="308" depart="308.00" from="694407544" to="15874743#0"/>
    <trip id="309" depart="309.00" from="69119564#3" to="15874743#0"/>
    <trip id="310" depart="310.00" from="136100518#0" to="-230878791#2"/>
    <trip id="311" depart="311.00" from="-305384994#0" to="-230878791#2"/>
    <trip id="315" depart="315.00" from="82914449" to="305384998#0"/>
    <trip id="320" depart="320.00" from="82914449" to="39349400#0"/>
    <trip id="321" depart="321.00" from="69119564#3" to="-230878791#2"/>
    <trip id="322" depart="322.00" from="694407546" to="305384998#0"/>
    <trip id="323" depart="323.00" from="694407546" to="39349400#0"/>
    <trip id="326" depart="326.00" from="82914449" to="305384998#0"/>
    <trip id="329" depart="329.00" from="-15874743#0" to="-305384994#0"/>
    <trip id="331" depart="331.00" from="82914449" to="-230878791#2"/>
    <trip id="335" depart="335.00" from="230878791#2" to="694407545"/>
    <trip id="336" depart="336.00" from="82914449" to="15874743#0"/>
    <trip id="337" depart="337.00" from="69119564#2" to="69119564#2"/>
    <trip id="338" depart="338.00" from="694407544" to="82914449"/>
    <trip id="339" depart="339.00" from="136100518#0" to="136100518#0"/>
    <trip id="340" depart="340.00" from="69119564#2" to="-305384994#0"/>
    <trip id="341" depart="341.00" from="-305384994#0" to="-230878791#2"/>
    <trip id="346" depart="346.00" from="69119564#3" to="694407546"/>
    <trip id="348" depart="348.00" from="69119564#2" to="82914449"/>
    <trip id="349" depart="349.00" from="230878791#2" to="39349400#0"/>
    <trip id="350" depart="350.00" from="69119564#2" to="694407546"/>
    <trip id="351" depart="351.00" from="694407545" to="-230878791#2"/>
    <trip id="353" depart="353.00" from="694407544" to="39349400#0"/>
    <trip id="355" depart="355.00" from="69119564#3" to="69119564#3"/>
    <trip id="356" depart="356.00" from="82914449" to="305384998#0"/>
    <trip id="361" depart="361.00" from="694407545" to="39349400#0"/>
    <trip id="362" depart="362.00" from="82914449" to="82914449"/>
    <trip id="363" depart="363.00" from="69119564#3" to="15874743#0"/>
    <trip id="364" depart="364.00" from="-15874743#0" to="694407544"/>
    <trip id="366" depart="366.00" from="694407546" to="-305384994#0"/>
    <trip id="369" depart="369.00" from="230878791#0" to="15874743#0"/>
    <trip id="370" depart="370.00" from="69119564#3" to="694407545"/>
    <trip id="373" depart="373.00" from="694407545" to="39349400#0"/>
    <trip id="374" depart="374.00" from="230878791#2" to="15874743#0"/>
    <trip id="376" depart="376.00" from="230878791#2" to="305384998#0"/>
    <trip id="388" depart="388.00" from="82914449" to="694407546"/>
    <trip id="389" depart="389.00" from="230878791#2" to="-230878791#2"/>
    <trip id="390" depart="390.00" from="694407545" to="305384998#0"/>
    <trip id="391" depart="391.00" from="69119564#3" to="305384998#0"/>
    <trip id="395" depart="395.00" from="694407546" to="305384998#0"/>
    <trip id="396" depart="396.00" from="694407546" to="694407545"/>
    <trip id="398" depart="398.00" from="230878791#2" to="82914449"/>
    <trip id="400" depart="400.00" from="15874743#0" to="15874743#0"/>
    <trip id="404" depart="404.00" from="39349400#0" to="39349400#0"/>
    <trip id="405" depart="405.00" from="230878791#2" to="15874743#0"/>
    <trip id="411" depart="411.00" from="69119564#2" to="694407545"/>
    <trip id="412" depart="412.00" from="82914449" to="305384998#0"/>
    <trip id="413" depart="413.00" from="-15874743#0" to="305384998#0"/>
    <trip id="418" depart="418.00" from="69119564#2" to="-305384994#0"/>
    <trip id="421" depart="421.00" from="69119564#2" to="694407545"/>
    <trip id="422" depart="422.00" from="694407545" to="694407545"/>
    <trip id="423" depart="423.00" from="230878791#0" to="15874743#0"/>
    <trip id="424" depart="424.00" from="69119564#3" to="694407544"/>
    <trip id="427" depart="427.00" from="694407546" to="82914449"/>
    <trip id="431" depart="431.00" from="69119564#3" to="694407546"/>
    <trip id="432" depart="432.00" from="-15874743#0" to="694407544"/>
    <trip id="434" depart="434.00" from="-305384994#0" to="305384998#0"/>
    <trip id="436" depart="436.00" from="-305384994#0" to="-230878791#2"/>
    <trip id="438" depart="438.00" from="136100518#0" to="694407546"/>
    <trip id="440" depart="440.00" from="136100518#0" to="136100518#0"/>
    <trip id="441" depart="441.00" from="-15874743#0" to="694407545"/>
    <trip id="444" depart="444.00" from="230878791#0" to="39349400#0"/>
    <trip id="446" depart="446.00" from="136100518#0" to="694407545"/>
    <trip id="449" depart="449.00" from="39349400#0" to="39349400#0"/>
    <trip id="450" depart="450.00" from="82914449" to="15874743#0"/>
    <trip id="453" depart="453.00" from="69119564#3" to="694407544"/>
    <trip id="458" depart="458.00" from="69119564#2" to="69119564#2"/>
    <trip id="459" depart="459.00" from="69119564#3" to="69119564#3"/>
    <trip id="460" depart="460.00" from="69119564#2" to="694407545"/>
    <trip id="461" depart="461.00" from="69119564#2" to="694407546"/>
    <trip id="462" depart="462.00" from="69119564#2" to="15874743#0"/>
    <trip id="463" depart="463.00" from="230878791#2" to="39349400#0"/>
    <trip id="464" depart="464.00" from="69119564#3" to="-230878791#2"/>
    <trip id="466" depart="466.00" from="-305384994#0" to="-230878791#2"/>
    <trip id="470" depart="470.00" from="694407545" to="305384998#0"/>
    <trip id="471" depart="471.00" from="694407545" to="694407544"/>
    <trip id="472" depart="472.00" from="230878791#0" to="-230878791#2"/>
    <trip id="473" depart="473.00" from="82914449" to="-305384994#0"/>
    <trip id="474" depart="474.00" from="82914449" to="694407545"/>
    <trip id="475" depart="475.00" from="69119564#3" to="82914449"/>
    <trip id="476" depart="476.00" from="82914449" to="694407545"/>
    <trip id="477" depart="477.00" from="230878791#0" to="694407544"/>
    <trip id="478" depart="478.00" from="-15874743#0" to="39349400#0"/>
    <trip id="480" depart="480.00" from="69119564#3" to="39349400#0"/>
    <trip id="481" depart="481.00" from="694407545" to="82914449"/>
    <trip id="483" depart="483.00" from="-15874743#0" to="694407546"/>
    <trip id="486" depart="486.00" from="694407545" to="694407546"/>
    <trip id="492" depart="492.00" from="69119564#3" to="694407544"/>
    <trip id="494" depart="494.00" from="694407544" to="-305384994#0"/>
    <trip id="495" depart="495.00" from="230878791#2" to="-230878791#2"/>
    <trip id="498" depart="498.00" from="230878791#0" to="230878791#2"/>
    <trip id="499" depart="499.00" from="82914449" to="694407545"/>
    <trip id="502" depart="502.00" from="230878791#0" to="230878791#0"/>
    <trip id="503" depart="503.00" from="-305384994#0" to="-230878791#2"/>
    <trip id="505" depart="505.00" from="69119564#2" to="69119564#2"/>
    <trip id="510" depart="510.00" from="136100518#0" to="136100518#0"/>
    <trip id="511" depart="511.00" from="694407546" to="15874743#0"/>
    <trip id="513" depart="513.00" from="-15874743#0" to="694407545"/>
    <trip id="514" depart="514.00" from="-305384994#0" to="-230878791#2"/>
    <trip id="515" depart="515.00" from="136100518#0" to="-305384994#0"/>
    <trip id="517" depart="517.00" from="-15874743#0" to="694407544"/>
    <trip id="518" depart="518.00" from="136100518#0" to="15874743#0"/>
    <trip id="520" depart="520.00" from="694407544" to="305384998#0"/>
    <trip id="521" depart="521.00" from="694407544" to="305384998#0"/>
    <trip id="522" depart="522.00" from="694407544" to="305384998#0"/>
    <trip id="523" depart="523.00" from="-230878791#2" to="305384998#0"/>
    <trip id="525" depart="525.00" from="694407544" to="694407546"/>
    <trip id="529" depart="529.00" from="69119564#3" to="305384998#0"/>
    <trip id="530" depart="530.00" from="694407546" to="-230878791#2"/>
    <trip id="532" depart="532.00" from="-15874743#0" to="15874743#0"/>
    <trip id="533" depart="533.00" from="69119564#2" to="39349400#0"/>
    <trip id="536" depart="536.00" from="69119564#2" to="-230878791#2"/>
    <trip id="537" depart="537.00" from="69119564#3" to="694407545"/>
    <trip id="538" depart="538.00" from="69119564#2" to="694407544"/>
    <trip id="541" depart="541.00" from="230878791#0" to="230878791#2"/>
    <trip id="542" depart="542.00" from="230878791#2" to="-230878791#2"/>
    <trip id="544" depart="544.00" from="230878791#0" to="-305384994#0"/>
    <trip id="545" depart="545.00" from="694407546" to="-230878791#2"/>
    <trip id="546" depart="546.00" from="694407545" to="-230878791#2"/>
    <trip id="548" depart="548.00" from="694407545" to="39349400#0"/>
    <trip id="549" depart="549.00" from="39349400#0" to="39349400#0"/>
    <trip id="552" depart="552.00" from="694407544" to="694407546"/>
    <trip id="553" depart="553.00" from="69119564#3" to="82914449"/>
    <trip id="558" depart="558.00" from="230878791#0" to="694407544"/>
    <trip id="560" depart="560.00" from="694407545" to="82914449"/>
    <trip id="563" depart="563.00" from="694407546" to="694407545"/>
    <trip id="565" depart="565.00" from="69119564#3" to="15874743#0"/>
    <trip id="566" depart="566.00" from="230878791#0" to="-15874743#0"/>
    <trip id="567" depart="567.00" from="694407546" to="39349400#0"/>
    <trip id="568" depart="568.00" from="230878791#2" to="-305384994#0"/>
    <trip id="573" depart="573.00" from="694407544" to="39349400#0"/>
    <trip id="576" depart="576.00" from="69119564#3" to="15874743#0"/>
    <trip id="577" depart="577.00" from="69119564#2" to="305384998#0"/>
    <trip id="578" depart="578.00" from="230878791#2" to="15874743#0"/>
    <trip id="579" depart="579.00" from="694407544" to="-230878791#2"/>
    <trip id="580" depart="580.00" from="230878791#2" to="15874743#0"/>
    <trip id="581" depart="581.00" from="69119564#3" to="305384998#0"/>
    <trip id="583" depart="583.00" from="230878791#0" to="39349400#0"/>
    <trip id="584" depart="584.00" from="-15874743#0" to="15874743#0"/>
    <trip id="585" depart="585.00" from="136100518#0" to="-305384994#0"/>
    <trip id="586" depart="586.00" from="136100518#0" to="15874743#0"/>
    <trip id="587" depart="587.00" from="-15874743#0" to="694407544"/>
    <trip id="589" depart="589.00" from="69119564#3" to="305384998#0"/>
    <trip id="590" depart="590.00" from="694407545" to="694407545"/>
    <trip id="592" depart="592.00" from="-15874743#0" to="-15874743#0"/>
    <trip id="593" depart="593.00" from="694407546" to="694407545"/>
    <trip id="594" depart="594.00" from="39349400#0" to="39349400#0"/>
    <trip id="598" depart="598.00" from="69119564#2" to="694407545"/>
    <trip id="599" depart="599.00" from="694407546" to="-230878791#2"/>
    <trip id="602" depart="602.00" from="230878791#0" to="15874743#0"/>
    <trip id="603" depart="603.00" from="230878791#0" to="15874743#0"/>
    <trip id="604" depart="604.00" from="-305384994#0" to="305384998#0"/>
    <trip id="605" depart="605.00" from="-230878791#2" to="305384998#0"/>
    <trip id="607" depart="607.00" from="69119564#3" to="694407545"/>
    <trip id="609" depart="609.00" from="-305384994#0" to="-305384994#0"/>
    <trip id="610" depart="610.00" from="69119564#2" to="694407544"/>
    <trip id="611" depart="611.00" from="69119564#2" to="-305384994#0"/>
    <trip id="612" depart="612.00" from="694407544" to="305384998#0"/>
    <trip id="613" depart="613.00" from="694407544" to="694407544"/>
    <trip id="614" depart="614.00" from="230878791#2" to="694407546"/>
    <trip id="616" depart="616.00" from="69119564#2" to="694407545"/>
    <trip id="617" depart="617.00" from="69119564#2" to="-305384994#0"/>
    <trip id="619" depart="619.00" from="15874743#0" to="15874743#0"/>
    <trip id="620" depart="620.00" from="-15874743#0" to="305384998#0"/>
    <trip id="622" depart="622.00" from="-15874743#0" to="694407545"/>
    <trip id="635" depart="635.00" from="230878791#2" to="305384998#0"/>
    <trip id="638" depart="638.00" from="230878791#0" to="39349400#0"/>
    <trip id="640" depart="640.00" from="-15874743#0" to="-230878791#2"/>
    <trip id="641" depart="641.00" from="69119564#3" to="15874743#0"/>
    <trip id="643" depart="643.00" from="694407546" to="694407546"/>
    <trip id="644" depart="644.00" from="230878791#0" to="39349400#0"/>
    <trip id="647" depart="647.00" from="230878791#0" to="39349400#0"/>
    <trip id="648" depart="648.00" from="82914449" to="15874743#0"/>
    <trip id="649" depart="649.00" from="230878791#0" to="694407544"/>
    <trip id="651" depart="651.00" from="694407545" to="694407544"/>
    <trip id="652" depart="652.00" from="69119564#3" to="305384998#0"/>
    <trip id="654" depart="654.00" from="230878791#0" to="230878791#0"/>
    <trip id="656" depart="656.00" from="82914449" to="305384998#0"/>
    <trip id="657" depart="657.00" from="136100518#0" to="-305384994#0"/>
    <trip id="660" depart="660.00" from="694407545" to="694407546"/>
    <trip id="662" depart="662.00" from="694407544" to="-230878791#2"/>
    <trip id="663" depart="663.00" from="230878791#0" to="-305384994#0"/>
    <trip id="664" depart="664.00" from="694407545" to="694407544"/>
    <trip id="665" depart="665.00" from="694407545" to="-305384994#0"/>
    <trip id="666" depart="666.00" from="230878791#2" to="230878791#2"/>
    <trip id="668" depart="668.00" from="230878791#2" to="15874743#0"/>
    <trip id="671" depart="671.00" from="694407545" to="305384998#0"/>
    <trip id="673" depart="673.00" from="82914449" to="82914449"/>
    <trip id="674" depart="674.00" from="230878791#2" to="15874743#0"/>
    <trip id="675" depart="675.00" from="230878791#0" to="305384998#0"/>
    <trip id="676" depart="676.00" from="82914449" to="694407545"/>
    <trip id="677" depart="677.00" from="694407545" to="-305384994#0"/>
    <trip id="679" depart="679.00" from="694407546" to="39349400#0"/>
    <trip id="681" depart="681.00" from="694407545" to="15874743#0"/>
    <trip id="682" depart="682.00" from="694407544" to="15874743#0"/>
    <trip id="683" depart="683.00" from="694407546" to="-305384994#0"/>
    <trip id="684" depart="684.00" from="230878791#2" to="82914449"/>
    <trip id="686" depart="686.00" from="230878791#0" to="-15874743#0"/>
    <trip id="687" depart="687.00" from="-15874743#0" to="305384998#0"/>
    <trip id="688" depart="688.00" from="136100518#0" to="82914449"/>
    <trip id="689" depart="689.00" from="230878791#0" to="-15874743#0"/>
    <trip id="690" depart="690.00" from="694407546" to="694407545"/>
    <trip id="691" depart="691.00" from="69119564#2" to="694407544"/>
    <trip id="695" depart="695.00" from="230878791#2" to="-15874743#0"/>
    <trip id="697" depart="697.00" from="694407545" to="39349400#0"/>
    <trip id="698" depart="698.00" from="69119564#3" to="305384998#0"/>
    <trip id="701" depart="701.00" from="230878791#2" to="694407544"/>
    <trip id="702" depart="702.00" from="230878791#2" to="-230878791#2"/>
    <trip id="703" depart="703.00" from="694407546" to="39349400#0"/>
    <trip id="704" depart="704.00" from="-15874743#0" to="305384998#0"/>
    <trip id="705" depart="705.00" from="136100518#0" to="-305384994#0"/>
    <trip id="708" depart="708.00" from="69119564#2" to="-230878791#2"/>
    <trip id="709" depart="709.00" from="82914449" to="-230878791#2"/>
    <trip id="710" depart="710.00" from="305384998#0" to="305384998#0"/>
    <trip id="711" depart="711.00" from="82914449" to="39349400#0"/>
    <trip id="712" depart="712.00" from="230878791#0" to="305384998#0"/>
    <trip id="713" depart="713.00" from="69119564#2" to="82914449"/>
    <trip id="717" depart="717.00" from="694407544" to="694407544"/>
    <trip id="722" depart="722.00" from="69119564#2" to="694407545"/>
    <trip id="723" depart="723.00" from="-15874743#0" to="694407544"/>
    <trip id="724" depart="724.00" from="230878791#2" to="15874743#0"/>
    <trip id="725" depart="725.00" from="-15874743#0" to="-305384994#0"/>
    <trip id="726" depart="726.00" from="-15874743#0" to="82914449"/>
    <trip id="729" depart="729.00" from="694407544" to="-305384994#0"/>
    <trip id="730" depart="730.00" from="230878791#0" to="694407544"/>
    <trip id="731" depart="731.00" from="694407545" to="15874743#0"/>
    <trip id="733" depart="733.00" from="694407546" to="694407544"/>
    <trip id="735" depart="735.00" from="82914449" to="305384998#0"/>
    <trip id="738" depart="738.00" from="69119564#3" to="-230878791#2"/>
    <trip id="739" depart="739.00" from="69119564#2" to="694407545"/>
    <trip id="744" depart="744.00" from="230878791#0" to="-15874743#0"/>
    <trip id="746" depart="746.00" from="82914449" to="15874743#0"/>
    <trip id="747" depart="747.00" from="82914449" to="82914449"/>
    <trip id="749" depart="749.00" from="230878791#0" to="694407545"/>
    <trip id="750" depart="750.00" from="69119564#3" to="82914449"/>
    <trip id="754" depart="754.00" from="230878791#0" to="230878791#0"/>
    <trip id="756" depart="756.00" from="69119564#3" to="82914449"/>
    <trip id="757" depart="757.00" from="230878791#0" to="694407544"/>
    <trip id="760" depart="760.00" from="136100518#0" to="-230878791#2"/>
    <trip id="761" depart="761.00" from="694407544" to="305384998#0"/>
    <trip id="762" depart="762.00" from="230878791#0" to="39349400#0"/>
    <trip id="763" depart="763.00" from="136100518#0" to="136100518#0"/>
    <trip id="764" depart="764.00" from="230878791#2" to="82914449"/>
    <trip id="770" depart="770.00" from="694407545" to="15874743#0"/>
    <trip id="771" depart="771.00" from="230878791#0" to="-15874743#0"/>
    <trip id="775" depart="775.00" from="694407544" to="305384998#0"/>
    <trip id="778" depart="778.00" from="-15874743#0" to="39349400#0"/>
    <trip id="779" depart="779.00" from="230878791#0" to="694407545"/>
    <trip id="784" depart="784.00" from="694407545" to="-230878791#2"/>
    <trip id="787" depart="787.00" from="230878791#0" to="694407546"/>
    <trip id="790" depart="790.00" from="230878791#2" to="694407546"/>
    <trip id="791" depart="791.00" from="-15874743#0" to="-230878791#2"/>
    <trip id="792" depart="792.00" from="-305384994#0" to="-305384994#0"/>
    <trip id="794" depart="794.00" from="230878791#0" to="82914449"/>