<?xml version="1.0" encoding="UTF-8"?>

<!-- generated on 2022-09-15 11:43:03 by Eclipse SUMO duarouter Version 1.10.0
<configuration xmlns:xsi="http://www.w3.org/2001/XMLSchema-instance" xsi:noNamespaceSchemaLocation="http://sumo.dlr.de/xsd/duarouterConfiguration.xsd">

    <input>
        <net-file value="net/Tol-SktPL.net.xml"/>
        <route-files value="trips.trips.xml"/>
    </input>

    <output>
        <output-file value="routes.rou.xml"/>
        <alternatives-output value="routes.rou.alt.xml"/>
    </output>

    <time>
        <begin value="0"/>
        <end value="3600"/>
    </time>

    <report>
        <no-warnings value="true"/>
        <ignore-errors value="true"/>
        <no-step-log value="true"/>
    </report>

</configuration>
-->

<routes xmlns:xsi="http://www.w3.org/2001/XMLSchema-instance" xsi:noNamespaceSchemaLocation="http://sumo.dlr.de/xsd/routes_file.xsd">
    <vehicle id="1" depart="1.00">
        <route edges="136100522#1"/>
    </vehicle>
    <vehicle id="2" depart="2.00">
        <route edges="305384998"/>
    </vehicle>
    <vehicle id="3" depart="3.00">
        <route edges="471168801#0 305384999#0 -305384999#3 -471168801#4"/>
    </vehicle>
    <vehicle id="5" depart="5.00">
        <route edges="136100522#1 230878792#0"/>
    </vehicle>
    <vehicle id="7" depart="7.00">
        <route edges="305384998 230878792#0"/>
    </vehicle>
    <vehicle id="8" depart="8.00">
        <route edges="136100522#1 230878792#0"/>
    </vehicle>
    <vehicle id="9" depart="9.00">
        <route edges="305384998 305384999#0 -305384999#3"/>
    </vehicle>
    <vehicle id="10" depart="10.00">
        <route edges="305384998"/>
    </vehicle>
    <vehicle id="12" depart="12.00">
        <route edges="471168801#0 230878791"/>
    </vehicle>
    <vehicle id="13" depart="13.00">
        <route edges="-471168801#4"/>
    </vehicle>
    <vehicle id="14" depart="14.00">
        <route edges="305384999#0 -305384999#3 230878792#0"/>
    </vehicle>
    <vehicle id="15" depart="15.00">
        <route edges="305384998"/>
    </vehicle>
    <vehicle id="18" depart="18.00">
        <route edges="305384999#0 -305384999#3 230878792#0"/>
    </vehicle>
    <vehicle id="19" depart="19.00">
        <route edges="305384999#0 -305384999#3 230878792#0"/>
    </vehicle>
    <vehicle id="20" depart="20.00">
        <route edges="305384998 305384999#0 -305384999#3"/>
    </vehicle>
    <vehicle id="21" depart="21.00">
        <route edges="136100522#1"/>
    </vehicle>
    <vehicle id="27" depart="27.00">
        <route edges="305384998 230878792#0"/>
    </vehicle>
    <vehicle id="29" depart="29.00">
        <route edges="136100522#1 230878791"/>
    </vehicle>
    <vehicle id="30" depart="30.00">
        <route edges="471168801#0 230878792#0"/>
    </vehicle>
    <vehicle id="33" depart="33.00">
        <route edges="136100522#1 305384999#0 -305384999#3"/>
    </vehicle>
    <vehicle id="36" depart="36.00">
        <route edges="305384999#0 -305384999#3 230878791"/>
    </vehicle>
    <vehicle id="37" depart="37.00">
        <route edges="305384998 230878791"/>
    </vehicle>
    <vehicle id="38" depart="38.00">
        <route edges="471168801#0 230878791"/>
    </vehicle>
    <vehicle id="39" depart="39.00">
        <route edges="136100522#1"/>
    </vehicle>
    <vehicle id="43" depart="43.00">
        <route edges="471168801#0 230878792#0"/>
    </vehicle>
    <vehicle id="46" depart="46.00">
        <route edges="305384998 230878791"/>
    </vehicle>
    <vehicle id="48" depart="48.00">
        <route edges="471168801#0 230878792#0"/>
    </vehicle>
    <vehicle id="49" depart="49.00">
        <route edges="471168801#0 305384999#0"/>
    </vehicle>
    <vehicle id="51" depart="51.00">
        <route edges="305384998 230878792#0"/>
    </vehicle>
    <vehicle id="52" depart="52.00">
        <route edges="136100522#1 230878792#0"/>
    </vehicle>
    <vehicle id="57" depart="57.00">
        <route edges="471168801#0 305384999#0"/>
    </vehicle>
    <vehicle id="60" depart="60.00">
        <route edges="305384998 230878792#0"/>
    </vehicle>
    <vehicle id="61" depart="61.00">
        <route edges="305384998 230878792#0"/>
    </vehicle>
    <vehicle id="62" depart="62.00">
        <route edges="-305384999#3 230878791"/>
    </vehicle>
    <vehicle id="64" depart="64.00">
        <route edges="305384999#0"/>
    </vehicle>
    <vehicle id="70" depart="70.00">
        <route edges="230878792#0"/>
    </vehicle>
    <vehicle id="71" depart="71.00">
        <route edges="136100522#1 305384999#0"/>
    </vehicle>
    <vehicle id="74" depart="74.00">
        <route edges="136100522#1 230878791"/>
    </vehicle>
    <vehicle id="77" depart="77.00">
        <route edges="136100522#1"/>
    </vehicle>
    <vehicle id="79" depart="79.00">
        <route edges="136100522#1"/>
    </vehicle>
    <vehicle id="82" depart="82.00">
        <route edges="305384999#0 -305384999#3 -471168801#4"/>
    </vehicle>
    <vehicle id="84" depart="84.00">
        <route edges="136100522#1"/>
    </vehicle>
    <vehicle id="85" depart="85.00">
        <route edges="471168801#0 230878792#0"/>
    </vehicle>
    <vehicle id="89" depart="89.00">
        <route edges="230878791"/>
    </vehicle>
    <vehicle id="90" depart="90.00">
        <route edges="305384998"/>
    </vehicle>
    <vehicle id="91" depart="91.00">
        <route edges="471168801#0 305384999#0 -305384999#3 -471168801#4"/>
    </vehicle>
    <vehicle id="92" depart="92.00">
        <route edges="230878791"/>
    </vehicle>
    <vehicle id="94" depart="94.00">
        <route edges="136100522#1 230878791"/>
    </vehicle>
    <vehicle id="99" depart="99.00">
        <route edges="471168801#0 305384999#0"/>
    </vehicle>
    <vehicle id="100" depart="100.00">
        <route edges="471168801#0"/>
    </vehicle>
    <vehicle id="106" depart="106.00">
        <route edges="230878791"/>
    </vehicle>
    <vehicle id="107" depart="107.00">
        <route edges="471168801#0"/>
    </vehicle>
    <vehicle id="109" depart="109.00">
        <route edges="136100522#1 230878791"/>
    </vehicle>
    <vehicle id="110" depart="110.00">
        <route edges="471168801#0 230878792#0"/>
    </vehicle>
    <vehicle id="112" depart="112.00">
        <route edges="-305384999#3 230878792#0"/>
    </vehicle>
    <vehicle id="117" depart="117.00">
        <route edges="136100522#1"/>
    </vehicle>
    <vehicle id="119" depart="119.00">
        <route edges="230878792#0"/>
    </vehicle>
    <vehicle id="123" depart="123.00">
        <route edges="136100522#1 230878791"/>
    </vehicle>
    <vehicle id="124" depart="124.00">
        <route edges="305384998 230878791"/>
    </vehicle>
    <vehicle id="127" depart="127.00">
        <route edges="471168801#0"/>
    </vehicle>
    <vehicle id="130" depart="130.00">
        <route edges="305384999#0"/>
    </vehicle>
    <vehicle id="134" depart="134.00">
        <route edges="305384998 305384999#0 -305384999#3"/>
    </vehicle>
    <vehicle id="135" depart="135.00">
        <route edges="305384998 230878791"/>
    </vehicle>
    <vehicle id="137" depart="137.00">
        <route edges="136100522#1 -471168801#4"/>
    </vehicle>
    <vehicle id="139" depart="139.00">
        <route edges="136100522#1 230878792#0"/>
    </vehicle>
    <vehicle id="143" depart="143.00">
        <route edges="305384999#0 -305384999#3 -471168801#4"/>
    </vehicle>
    <vehicle id="147" depart="147.00">
        <route edges="305384998 230878792#0"/>
    </vehicle>
    <vehicle id="150" depart="150.00">
        <route edges="471168801#0 230878792#0"/>
    </vehicle>
    <vehicle id="151" depart="151.00">
        <route edges="305384999#0 -305384999#3 230878792#0"/>
    </vehicle>
    <vehicle id="152" depart="152.00">
        <route edges="136100522#1"/>
    </vehicle>
    <vehicle id="154" depart="154.00">
        <route edges="305384998 305384999#0"/>
    </vehicle>
    <vehicle id="156" depart="156.00">
        <route edges="136100522#1 -471168801#4"/>
    </vehicle>
    <vehicle id="161" depart="161.00">
        <route edges="305384998 305384999#0"/>
    </vehicle>
    <vehicle id="164" depart="164.00">
        <route edges="305384998 305384999#0"/>
    </vehicle>
    <vehicle id="166" depart="166.00">
        <route edges="305384998 -471168801#4"/>
    </vehicle>
    <vehicle id="167" depart="167.00">
        <route edges="305384999#0"/>
    </vehicle>
    <vehicle id="169" depart="169.00">
        <route edges="230878791"/>
    </vehicle>
    <vehicle id="175" depart="175.00">
        <route edges="471168801#0 230878792#0"/>
    </vehicle>
    <vehicle id="176" depart="176.00">
        <route edges="471168801#0 305384999#0 -305384999#3 -471168801#4"/>
    </vehicle>
    <vehicle id="180" depart="180.00">
        <route edges="305384998 230878791"/>
    </vehicle>
    <vehicle id="181" depart="181.00">
        <route edges="230878792#0"/>
    </vehicle>
    <vehicle id="186" depart="186.00">
        <route edges="305384998"/>
    </vehicle>
    <vehicle id="188" depart="188.00">
        <route edges="305384998 230878791"/>
    </vehicle>
    <vehicle id="190" depart="190.00">
        <route edges="305384998 230878791"/>
    </vehicle>
    <vehicle id="191" depart="191.00">
        <route edges="230878791"/>
    </vehicle>
    <vehicle id="192" depart="192.00">
        <route edges="230878791"/>
    </vehicle>
    <vehicle id="193" depart="193.00">
        <route edges="136100522#1 230878791"/>
    </vehicle>
    <vehicle id="195" depart="195.00">
        <route edges="471168801#0 230878792#0"/>
    </vehicle>
    <vehicle id="199" depart="199.00">
        <route edges="305384998 230878791"/>
    </vehicle>
    <vehicle id="205" depart="205.00">
        <route edges="305384998"/>
    </vehicle>
    <vehicle id="207" depart="207.00">
        <route edges="136100522#1 305384999#0 -305384999#3"/>
    </vehicle>
    <vehicle id="208" depart="208.00">
        <route edges="136100522#1 230878792#0"/>
    </vehicle>
    <vehicle id="209" depart="209.00">
        <route edges="305384999#0 -305384999#3 -471168801#4"/>
    </vehicle>
    <vehicle id="213" depart="213.00">
        <route edges="305384998 305384999#0 -305384999#3"/>
    </vehicle>
    <vehicle id="214" depart="214.00">
        <route edges="305384998"/>
    </vehicle>
    <vehicle id="218" depart="218.00">
        <route edges="136100522#1 305384999#0"/>
    </vehicle>
    <vehicle id="222" depart="222.00">
        <route edges="471168801#0 230878792#0"/>
    </vehicle>
    <vehicle id="223" depart="223.00">
        <route edges="305384998 230878792#0"/>
    </vehicle>
    <vehicle id="224" depart="224.00">
        <route edges="305384999#0 -305384999#3 230878792#0"/>
    </vehicle>
    <vehicle id="227" depart="227.00">
        <route edges="136100522#1 230878792#0"/>
    </vehicle>
    <vehicle id="228" depart="228.00">
        <route edges="305384998 230878792#0"/>
    </vehicle>
    <vehicle id="231" depart="231.00">
        <route edges="136100522#1 230878791"/>
    </vehicle>
    <vehicle id="234" depart="234.00">
        <route edges="305384998 -471168801#4"/>
    </vehicle>
    <vehicle id="244" depart="244.00">
        <route edges="230878792#0"/>
    </vehicle>
    <vehicle id="245" depart="245.00">
        <route edges="136100522#1"/>
    </vehicle>
    <vehicle id="252" depart="252.00">
        <route edges="-305384999#3 230878792#0"/>
    </vehicle>
    <vehicle id="253" depart="253.00">
        <route edges="136100522#1 230878791"/>
    </vehicle>
    <vehicle id="254" depart="254.00">
        <route edges="-305384999#3 230878791"/>
    </vehicle>
    <vehicle id="255" depart="255.00">
        <route edges="136100522#1 230878791"/>
    </vehicle>
    <vehicle id="256" depart="256.00">
        <route edges="305384998 230878791"/>
    </vehicle>
    <vehicle id="257" depart="257.00">
        <route edges="305384998 305384999#0"/>
    </vehicle>
    <vehicle id="258" depart="258.00">
        <route edges="136100522#1 -471168801#4"/>
    </vehicle>
    <vehicle id="259" depart="259.00">
        <route edges="-305384999#3 230878792#0"/>
    </vehicle>
    <vehicle id="260" depart="260.00">
        <route edges="471168801#0 230878791"/>
    </vehicle>
    <vehicle id="261" depart="261.00">
        <route edges="305384998"/>
    </vehicle>
    <vehicle id="262" depart="262.00">
        <route edges="305384998"/>
    </vehicle>
    <vehicle id="267" depart="267.00">
        <route edges="305384998"/>
    </vehicle>
    <vehicle id="268" depart="268.00">
        <route edges="136100522#1 230878792#0"/>
    </vehicle>
    <vehicle id="269" depart="269.00">
        <route edges="305384998 -471168801#4"/>
    </vehicle>
    <vehicle id="273" depart="273.00">
        <route edges="471168801#0 230878791"/>
    </vehicle>
    <vehicle id="274" depart="274.00">
        <route edges="305384998 -471168801#4"/>
    </vehicle>
    <vehicle id="275" depart="275.00">
        <route edges="305384998 230878792#0"/>
    </vehicle>
    <vehicle id="277" depart="277.00">
        <route edges="305384999#0 -305384999#3 230878792#0"/>
    </vehicle>
    <vehicle id="279" depart="279.00">
        <route edges="305384998 230878791"/>
    </vehicle>
    <vehicle id="280" depart="280.00">
        <route edges="230878791"/>
    </vehicle>
    <vehicle id="285" depart="285.00">
        <route edges="305384998 230878791"/>
    </vehicle>
    <vehicle id="288" depart="288.00">
        <route edges="230878792#0"/>
    </vehicle>
    <vehicle id="290" depart="290.00">
        <route edges="136100522#1 305384999#0"/>
    </vehicle>
    <vehicle id="291" depart="291.00">
        <route edges="305384999#0 -305384999#3 -471168801#4"/>
    </vehicle>
    <vehicle id="302" depart="302.00">
        <route edges="305384998 230878792#0"/>
    </vehicle>
    <vehicle id="305" depart="305.00">
        <route edges="305384998 230878791"/>
    </vehicle>
    <vehicle id="306" depart="306.00">
        <route edges="230878792#0"/>
    </vehicle>
    <vehicle id="308" depart="308.00">
        <route edges="305384998 230878791"/>
    </vehicle>
    <vehicle id="310" depart="310.00">
        <route edges="136100522#1"/>
    </vehicle>
    <vehicle id="311" depart="311.00">
        <route edges="136100522#1"/>
    </vehicle>
    <vehicle id="313" depart="313.00">
        <route edges="136100522#1"/>
    </vehicle>
    <vehicle id="315" depart="315.00">
        <route edges="471168801#0 230878792#0"/>
    </vehicle>
    <vehicle id="316" depart="316.00">
        <route edges="136100522#1 -471168801#4"/>
    </vehicle>
    <vehicle id="317" depart="317.00">
        <route edges="136100522#1"/>
    </vehicle>
    <vehicle id="318" depart="318.00">
        <route edges="136100522#1 305384999#0 -305384999#3"/>
    </vehicle>
    <vehicle id="320" depart="320.00">
        <route edges="471168801#0 230878792#0"/>
    </vehicle>
    <vehicle id="322" depart="322.00">
        <route edges="305384999#0 -305384999#3 230878792#0"/>
    </vehicle>
    <vehicle id="323" depart="323.00">
        <route edges="305384999#0 -305384999#3 230878792#0"/>
    </vehicle>
    <vehicle id="324" depart="324.00">
        <route edges="230878791"/>
    </vehicle>
    <vehicle id="325" depart="325.00">
        <route edges="136100522#1 305384999#0 -305384999#3"/>
    </vehicle>
    <vehicle id="326" depart="326.00">
        <route edges="471168801#0 230878792#0"/>
    </vehicle>
    <vehicle id="327" depart="327.00">
        <route edges="305384998 230878791"/>
    </vehicle>
    <vehicle id="332" depart="332.00">
        <route edges="305384998 230878792#0"/>
    </vehicle>
    <vehicle id="336" depart="336.00">
        <route edges="471168801#0 230878791"/>
    </vehicle>
    <vehicle id="337" depart="337.00">
        <route edges="230878792#0"/>
    </vehicle>
    <vehicle id="339" depart="339.00">
        <route edges="136100522#1"/>
    </vehicle>
    <vehicle id="341" depart="341.00">
        <route edges="136100522#1 -471168801#4"/>
    </vehicle>
    <vehicle id="342" depart="342.00">
        <route edges="-305384999#3 230878791"/>
    </vehicle>
    <vehicle id="345" depart="345.00">
        <route edges="305384998 230878791"/>
    </vehicle>
    <vehicle id="347" depart="347.00">
        <route edges="305384998 230878792#0"/>
    </vehicle>
    <vehicle id="351" depart="351.00">
        <route edges="305384999#0 -305384999#3 -471168801#4"/>
    </vehicle>
    <vehicle id="352" depart="352.00">
        <route edges="136100522#1 230878791"/>
    </vehicle>
    <vehicle id="353" depart="353.00">
        <route edges="305384998 230878792#0"/>
    </vehicle>
    <vehicle id="354" depart="354.00">
        <route edges="136100522#1"/>
    </vehicle>
    <vehicle id="355" depart="355.00">
        <route edges="305384998"/>
    </vehicle>
    <vehicle id="356" depart="356.00">
        <route edges="471168801#0 230878792#0"/>
    </vehicle>
    <vehicle id="358" depart="358.00">
        <route edges="-305384999#3 230878791"/>
    </vehicle>
    <vehicle id="361" depart="361.00">
        <route edges="305384999#0 -305384999#3 230878792#0"/>
    </vehicle>
    <vehicle id="362" depart="362.00">
        <route edges="471168801#0"/>
    </vehicle>
    <vehicle id="367" depart="367.00">
        <route edges="230878792#0"/>
    </vehicle>
    <vehicle id="369" depart="369.00">
        <route edges="230878791"/>
    </vehicle>
    <vehicle id="370" depart="370.00">
        <route edges="305384998 305384999#0"/>
    </vehicle>
    <vehicle id="373" depart="373.00">
        <route edges="305384998 230878792#0"/>
    </vehicle>
    <vehicle id="374" depart="374.00">
        <route edges="230878791"/>
    </vehicle>
    <vehicle id="379" depart="379.00">
        <route edges="136100522#1 230878791"/>
    </vehicle>
    <vehicle id="380" depart="380.00">
        <route edges="305384998 230878792#0"/>
    </vehicle>
    <vehicle id="386" depart="386.00">
        <route edges="136100522#1 230878792#0"/>
    </vehicle>
    <vehicle id="388" depart="388.00">
        <route edges="471168801#0"/>
    </vehicle>
    <vehicle id="390" depart="390.00">
        <route edges="305384999#0 -305384999#3 230878792#0"/>
    </vehicle>
    <vehicle id="391" depart="391.00">
        <route edges="305384998 230878792#0"/>
    </vehicle>
    <vehicle id="392" depart="392.00">
        <route edges="136100522#1 305384999#0"/>
    </vehicle>
    <vehicle id="395" depart="395.00">
        <route edges="471168801#0 230878792#0"/>
    </vehicle>
    <vehicle id="396" depart="396.00">
        <route edges="305384999#0"/>
    </vehicle>
    <vehicle id="400" depart="400.00">
        <route edges="136100522#1 230878791"/>
    </vehicle>
    <vehicle id="404" depart="404.00">
        <route edges="230878792#0"/>
    </vehicle>
    <vehicle id="405" depart="405.00">
        <route edges="230878791"/>
    </vehicle>
    <vehicle id="408" depart="408.00">
        <route edges="305384998 305384999#0 -305384999#3"/>
    </vehicle>
    <vehicle id="409" depart="409.00">
        <route edges="305384998"/>
    </vehicle>
    <vehicle id="410" depart="410.00">
        <route edges="305384998 230878791"/>
    </vehicle>
    <vehicle id="411" depart="411.00">
        <route edges="305384998"/>
    </vehicle>
    <vehicle id="412" depart="412.00">
        <route edges="471168801#0 230878792#0"/>
    </vehicle>
    <vehicle id="413" depart="413.00">
        <route edges="-305384999#3 230878792#0"/>
    </vehicle>
    <vehicle id="415" depart="415.00">
        <route edges="305384999#0 -305384999#3 230878791"/>
    </vehicle>
    <vehicle id="417" depart="417.00">
        <route edges="305384998 230878791"/>
    </vehicle>
    <vehicle id="421" depart="421.00">
        <route edges="305384998 305384999#0"/>
    </vehicle>
    <vehicle id="422" depart="422.00">
        <route edges="305384999#0"/>
    </vehicle>
    <vehicle id="423" depart="423.00">
        <route edges="230878791"/>
    </vehicle>
    <vehicle id="424" depart="424.00">
        <route edges="305384998"/>
    </vehicle>
    <vehicle id="425" depart="425.00">
        <route edges="305384999#0 -305384999#3"/>
    </vehicle>
    <vehicle id="427" depart="427.00">
        <route edges="471168801#0"/>
    </vehicle>
    <vehicle id="428" depart="428.00">
        <route edges="305384998 230878791"/>
    </vehicle>
    <vehicle id="430" depart="430.00">
        <route edges="305384999#0 -305384999#3 230878791"/>
    </vehicle>
    <vehicle id="433" depart="433.00">
        <route edges="136100522#1 230878791"/>
    </vehicle>
    <vehicle id="434" depart="434.00">
        <route edges="136100522#1 230878792#0"/>
    </vehicle>
    <vehicle id="436" depart="436.00">
        <route edges="136100522#1 -471168801#4"/>
    </vehicle>
    <vehicle id="437" depart="437.00">
        <route edges="305384999#0 -305384999#3 230878792#0"/>
    </vehicle>
    <vehicle id="439" depart="439.00">
        <route edges="136100522#1 230878791"/>
    </vehicle>
    <vehicle id="440" depart="440.00">
        <route edges="136100522#1"/>
    </vehicle>
    <vehicle id="443" depart="443.00">
        <route edges="136100522#1 230878791"/>
    </vehicle>
    <vehicle id="446" depart="446.00">
        <route edges="136100522#1 305384999#0"/>
    </vehicle>
    <vehicle id="447" depart="447.00">
        <route edges="136100522#1 230878791"/>
    </vehicle>
    <vehicle id="449" depart="449.00">
        <route edges="230878792#0"/>
    </vehicle>
    <vehicle id="450" depart="450.00">
        <route edges="471168801#0 230878791"/>
    </vehicle>
    <vehicle id="452" depart="452.00">
        <route edges="136100522#1 230878792#0"/>
    </vehicle>
    <vehicle id="453" depart="453.00">
        <route edges="305384998"/>
    </vehicle>
    <vehicle id="454" depart="454.00">
        <route edges="-305384999#3 230878792#0"/>
    </vehicle>
    <vehicle id="458" depart="458.00">
        <route edges="230878792#0"/>
    </vehicle>
    <vehicle id="459" depart="459.00">
        <route edges="305384998"/>
    </vehicle>
    <vehicle id="460" depart="460.00">
        <route edges="305384998 305384999#0"/>
    </vehicle>
    <vehicle id="464" depart="464.00">
        <route edges="305384998 -471168801#4"/>
    </vehicle>
    <vehicle id="466" depart="466.00">
        <route edges="136100522#1"/>
    </vehicle>
    <vehicle id="470" depart="470.00">
        <route edges="305384999#0 -305384999#3 230878792#0"/>
    </vehicle>
    <vehicle id="471" depart="471.00">
        <route edges="305384998"/>
    </vehicle>
    <vehicle id="474" depart="474.00">
        <route edges="471168801#0 305384999#0"/>
    </vehicle>
    <vehicle id="478" depart="478.00">
        <route edges="-305384999#3 230878792#0"/>
    </vehicle>
    <vehicle id="480" depart="480.00">
        <route edges="305384998 230878792#0"/>
    </vehicle>
    <vehicle id="485" depart="485.00">
        <route edges="136100522#1 -471168801#4"/>
    </vehicle>
    <vehicle id="487" depart="487.00">
        <route edges="230878791"/>
    </vehicle>
    <vehicle id="491" depart="491.00">
        <route edges="136100522#1 230878791"/>
    </vehicle>
    <vehicle id="492" depart="492.00">
        <route edges="305384998"/>
    </vehicle>
    <vehicle id="493" depart="493.00">
        <route edges="471168801#0 230878791"/>
    </vehicle>
    <vehicle id="497" depart="497.00">
        <route edges="471168801#0 305384999#0 -305384999#3"/>
    </vehicle>
    <vehicle id="498" depart="498.00">
        <route edges="230878791"/>
    </vehicle>
    <vehicle id="499" depart="499.00">
        <route edges="471168801#0 305384999#0"/>
    </vehicle>
    <vehicle id="502" depart="502.00">
        <route edges="230878791"/>
    </vehicle>
    <vehicle id="503" depart="503.00">
        <route edges="136100522#1"/>
    </vehicle>
    <vehicle id="504" depart="504.00">
        <route edges="305384999#0 -305384999#3 230878791"/>
    </vehicle>
    <vehicle id="505" depart="505.00">
        <route edges="305384998 230878792#0"/>
    </vehicle>
    <vehicle id="508" depart="508.00">
        <route edges="136100522#1 230878792#0"/>
    </vehicle>
    <vehicle id="510" depart="510.00">
        <route edges="136100522#1"/>
    </vehicle>
    <vehicle id="511" depart="511.00">
        <route edges="305384999#0 -305384999#3 230878791"/>
    </vehicle>
    <vehicle id="514" depart="514.00">
        <route edges="136100522#1"/>
    </vehicle>
    <vehicle id="515" depart="515.00">
        <route edges="136100522#1"/>
    </vehicle>
    <vehicle id="516" depart="516.00">
        <route edges="305384998 305384999#0 -305384999#3"/>
    </vehicle>
    <vehicle id="518" depart="518.00">
        <route edges="136100522#1 230878791"/>
    </vehicle>
    <vehicle id="519" depart="519.00">
        <route edges="136100522#1 305384999#0 -305384999#3"/>
    </vehicle>
    <vehicle id="520" depart="520.00">
        <route edges="305384998 230878792#0"/>
    </vehicle>
    <vehicle id="521" depart="521.00">
        <route edges="305384998 230878792#0"/>
    </vehicle>
    <vehicle id="522" depart="522.00">
        <route edges="305384998 230878792#0"/>
    </vehicle>
    <vehicle id="524" depart="524.00">
        <route edges="471168801#0 305384999#0 -305384999#3"/>
    </vehicle>
    <vehicle id="525" depart="525.00">
        <route edges="305384998 305384999#0"/>
    </vehicle>
    <vehicle id="527" depart="527.00">
        <route edges="471168801#0 305384999#0 -305384999#3 -471168801#4"/>
    </vehicle>
    <vehicle id="529" depart="529.00">
        <route edges="305384998 230878792#0"/>
    </vehicle>
    <vehicle id="530" depart="530.00">
        <route edges="471168801#0 305384999#0 -305384999#3 -471168801#4"/>
    </vehicle>
    <vehicle id="533" depart="533.00">
        <route edges="230878792#0"/>
    </vehicle>
    <vehicle id="537" depart="537.00">
        <route edges="305384998 305384999#0"/>
    </vehicle>
    <vehicle id="538" depart="538.00">
        <route edges="305384998"/>
    </vehicle>
    <vehicle id="541" depart="541.00">
        <route edges="230878791"/>
    </vehicle>
    <vehicle id="545" depart="545.00">
        <route edges="471168801#0 305384999#0 -305384999#3 -471168801#4"/>
    </vehicle>
    <vehicle id="546" depart="546.00">
        <route edges="305384999#0 -305384999#3 -471168801#4"/>
    </vehicle>
    <vehicle id="548" depart="548.00">
        <route edges="305384998 230878792#0"/>
    </vehicle>
    <vehicle id="549" depart="549.00">
        <route edges="230878792#0"/>
    </vehicle>
    <vehicle id="552" depart="552.00">
        <route edges="305384998 305384999#0"/>
    </vehicle>
    <vehicle id="561" depart="561.00">
        <route edges="305384998 230878792#0"/>
    </vehicle>
    <vehicle id="563" depart="563.00">
        <route edges="471168801#0 305384999#0"/>
    </vehicle>
    <vehicle id="564" depart="564.00">
        <route edges="136100522#1"/>
    </vehicle>
    <vehicle id="565" depart="565.00">
        <route edges="305384998 230878791"/>
    </vehicle>
    <vehicle id="567" depart="567.00">
        <route edges="305384999#0 -305384999#3 230878792#0"/>
    </vehicle>
    <vehicle id="571" depart="571.00">
        <route edges="230878791"/>
    </vehicle>
    <vehicle id="573" depart="573.00">
        <route edges="305384998 230878792#0"/>
    </vehicle>
    <vehicle id="575" depart="575.00">
        <route edges="136100522#1 230878792#0"/>
    </vehicle>
    <vehicle id="577" depart="577.00">
        <route edges="305384998 230878792#0"/>
    </vehicle>
    <vehicle id="579" depart="579.00">
        <route edges="305384998 -471168801#4"/>
    </vehicle>
    <vehicle id="581" depart="581.00">
        <route edges="305384998 230878792#0"/>
    </vehicle>
    <vehicle id="582" depart="582.00">
        <route edges="305384998 305384999#0 -305384999#3"/>
    </vehicle>
    <vehicle id="584" depart="584.00">
        <route edges="-305384999#3 230878791"/>
    </vehicle>
    <vehicle id="585" depart="585.00">
        <route edges="136100522#1"/>
    </vehicle>
    <vehicle id="586" depart="586.00">
        <route edges="136100522#1 230878791"/>
    </vehicle>
    <vehicle id="588" depart="588.00">
        <route edges="136100522#1 230878791"/>
    </vehicle>
    <vehicle id="589" depart="589.00">
        <route edges="305384998 230878792#0"/>
    </vehicle>
    <vehicle id="592" depart="592.00">
        <route edges="-305384999#3"/>
    </vehicle>
    <vehicle id="593" depart="593.00">
        <route edges="471168801#0 305384999#0"/>
    </vehicle>
    <vehicle id="594" depart="594.00">
        <route edges="230878792#0"/>
    </vehicle>
    <vehicle id="595" depart="595.00">
        <route edges="305384998 230878791"/>
    </vehicle>
    <vehicle id="599" depart="599.00">
        <route edges="471168801#0 305384999#0 -305384999#3 -471168801#4"/>
    </vehicle>
    <vehicle id="601" depart="601.00">
        <route edges="230878792#0"/>
    </vehicle>
    <vehicle id="602" depart="602.00">
        <route edges="230878791"/>
    </vehicle>
    <vehicle id="603" depart="603.00">
        <route edges="230878791"/>
    </vehicle>
    <vehicle id="604" depart="604.00">
        <route edges="136100522#1 230878792#0"/>
    </vehicle>
    <vehicle id="606" depart="606.00">
        <route edges="471168801#0 230878791"/>
    </vehicle>
    <vehicle id="607" depart="607.00">
        <route edges="305384998"/>
    </vehicle>
    <vehicle id="609" depart="609.00">
        <route edges="136100522#1"/>
    </vehicle>
    <vehicle id="612" depart="612.00">
        <route edges="305384998 230878792#0"/>
    </vehicle>
    <vehicle id="613" depart="613.00">
        <route edges="305384998"/>
    </vehicle>
    <vehicle id="615" depart="615.00">
        <route edges="230878792#0"/>
    </vehicle>
    <vehicle id="620" depart="620.00">
        <route edges="-305384999#3 230878792#0"/>