<?xml version="1.0" encoding="UTF-8"?>

<!-- generated on 2022-07-07 11:20:39 by Eclipse SUMO netconvert Version 1.10.0
<configuration xmlns:xsi="http://www.w3.org/2001/XMLSchema-instance" xsi:noNamespaceSchemaLocation="http://sumo.dlr.de/xsd/netconvertConfiguration.xsd">

    <input>
        <sumo-net-file value="Izt-HrB.net.xml,Mend-SktP.net.xml,SktP-Tol.net.xml"/>
    </input>

    <output>
        <output-file value="HrB-Tol.net.xml"/>
        <output.street-names value="true"/>
    </output>

    <processing>
        <geometry.min-radius.fix.railways value="false"/>
        <geometry.max-grade.fix value="false"/>
        <offset.disable-normalization value="true"/>
        <lefthand value="false"/>
    </processing>

    <junctions>
        <no-turnarounds value="true"/>
        <junctions.corner-detail value="5"/>
        <junctions.limit-turn-speed value="5.5"/>
        <rectangular-lane-cut value="false"/>
    </junctions>

    <pedestrian>
        <walkingareas value="false"/>
    </pedestrian>

    <report>
        <aggregate-warnings value="5"/>
        <ignore-errors value="true"/>
    </report>

</configuration>
-->

<net version="1.9" junctionCornerDetail="5" limitTurnSpeed="5.50" xmlns:xsi="http://www.w3.org/2001/XMLSchema-instance" xsi:noNamespaceSchemaLocation="http://sumo.dlr.de/xsd/net_file.xsd">

    <location netOffset="-314340.44,-4667081.10" convBoundary="0.00,-754.87,2399.87,852.16" origBoundary="24.753470,42.133910,24.771969,42.145475" projParameter="+proj=utm +zone=35 +ellps=WGS84 +datum=WGS84 +units=m +no_defs"/>

    <type id="highway.bridleway" priority="1" numLanes="1" speed="2.78" allow="pedestrian" oneway="1" width="2.00"/>
    <type id="highway.bus_guideway" priority="1" numLanes="1" speed="27.78" allow="bus" oneway="1"/>
    <type id="highway.cycleway" priority="1" numLanes="1" speed="8.33" allow="bicycle" oneway="1" width="1.00"/>
    <type id="highway.footway" priority="1" numLanes="1" speed="2.78" allow="pedestrian" oneway="1" width="2.00"/>
    <type id="highway.ford" priority="1" numLanes="1" speed="2.78" allow="army" oneway="1"/>
    <type id="highway.living_street" priority="2" numLanes="1" speed="2.78" disallow="tram rail_urban rail rail_electric rail_fast ship" oneway="1"/>
    <type id="highway.motorway" priority="14" numLanes="2" speed="39.44" allow="private emergency authority army vip passenger hov taxi bus coach delivery truck trailer motorcycle evehicle custom1 custom2" oneway="1"/>
    <type id="highway.motorway_link" priority="9" numLanes="1" speed="22.22" allow="private emergency authority army vip passenger hov taxi bus coach delivery truck trailer motorcycle evehicle custom1 custom2" oneway="1"/>
    <type id="highway.path" priority="1" numLanes="1" speed="2.78" allow="pedestrian bicycle" oneway="1" width="2.00"/>
    <type id="highway.pedestrian" priority="1" numLanes="1" speed="2.78" allow="pedestrian" oneway="1" width="2.00"/>
    <type id="highway.primary" priority="12" numLanes="2" speed="27.78" disallow="tram rail_urban rail rail_electric rail_fast ship" oneway="1"/>
    <type id="highway.primary_link" priority="7" numLanes="1" speed="22.22" disallow="tram rail_urban rail rail_electric rail_fast ship" oneway="1"/>
    <type id="highway.raceway" priority="15" numLanes="2" speed="83.33" allow="vip" oneway="1"/>
    <type id="highway.residential" priority="3" numLanes="1" speed="13.89" disallow="tram rail_urban rail rail_electric rail_fast ship" oneway="1"/>
    <type id="highway.secondary" priority="11" numLanes="1" speed="27.78" disallow="tram rail_urban rail rail_electric rail_fast ship" oneway="1"/>
    <type id="highway.secondary_link" priority="6" numLanes="1" speed="22.22" disallow="tram rail_urban rail rail_electric rail_fast ship" oneway="1"/>
    <type id="highway.service" priority="1" numLanes="1" speed="5.56" allow="pedestrian delivery bicycle" oneway="1"/>
    <type id="highway.stairs" priority="1" numLanes="1" speed="1.39" allow="pedestrian" oneway="1" width="2.00"/>
    <type id="highway.step" priority="1" numLanes="1" speed="1.39" allow="pedestrian" oneway="1" width="2.00"/>
    <type id="highway.steps" priority="1" numLanes="1" speed="1.39" allow="pedestrian" oneway="1" width="2.00"/>
    <type id="highway.tertiary" priority="10" numLanes="1" speed="22.22" disallow="tram rail_urban rail rail_electric rail_fast ship" oneway="1"/>
    <type id="highway.tertiary_link" priority="5" numLanes="1" speed="22.22" disallow="tram rail_urban rail rail_electric rail_fast ship" oneway="1"/>
    <type id="highway.track" priority="1" numLanes="1" speed="5.56" allow="pedestrian motorcycle moped bicycle" oneway="1"/>
    <type id="highway.trunk" priority="13" numLanes="2" speed="27.78" disallow="pedestrian bicycle tram rail_urban rail rail_electric rail_fast ship" oneway="1"/>
    <type id="highway.trunk_link" priority="8" numLanes="1" speed="22.22" disallow="pedestrian bicycle tram rail_urban rail rail_electric rail_fast ship" oneway="1"/>
    <type id="highway.unclassified" priority="4" numLanes="1" speed="13.89" disallow="tram rail_urban rail rail_electric rail_fast ship" oneway="1"/>
    <type id="highway.unsurfaced" priority="1" numLanes="1" speed="8.33" disallow="tram rail_urban rail rail_electric rail_fast ship" oneway="1"/>
    <type id="railway.highspeed" priority="21" numLanes="1" speed="69.44" allow="rail_fast" oneway="1"/>
    <type id="railway.light_rail" priority="19" numLanes="1" speed="27.78" allow="rail_urban" oneway="1"/>
    <type id="railway.preserved" priority="16" numLanes="1" speed="27.78" allow="rail" oneway="1"/>
    <type id="railway.rail" priority="20" numLanes="1" speed="44.44" allow="rail" oneway="1"/>
    <type id="railway.subway" priority="18" numLanes="1" speed="27.78" allow="rail_urban" oneway="1"/>
    <type id="railway.tram" priority="17" numLanes="1" speed="13.89" allow="tram" oneway="1"/>

    <edge id=":1090750520_0" function="internal">
        <lane id=":1090750520_0_0" index="0" disallow="tram rail_urban rail rail_electric rail_fast ship" speed="27.78" length="0.23" shape="502.37,252.18 502.17,252.18"/>
        <lane id=":1090750520_0_1" index="1" disallow="tram rail_urban rail rail_electric rail_fast ship" speed="27.78" length="0.23" shape="502.29,248.98 502.03,248.98"/>
    </edge>
    <edge id=":1090750520_2" function="internal">
        <lane id=":1090750520_2_0" index="0" disallow="tram rail_urban rail rail_electric rail_fast ship" speed="27.78" length="0.34" shape="501.77,242.59 502.14,242.58"/>
        <lane id=":1090750520_2_1" index="1" disallow="tram rail_urban rail rail_electric rail_fast ship" speed="27.78" length="0.34" shape="501.90,245.79 502.21,245.78"/>
    </edge>
    <edge id=":1698373733_0" function="internal">
        <lane id=":1698373733_0_0" index="0" disallow="tram rail_urban rail rail_electric rail_fast ship" speed="22.22" length="0.22" shape="1240.16,517.29 1240.07,517.49"/>
    </edge>
    <edge id=":1698373733_1" function="internal">
        <lane id=":1698373733_1_0" index="0" disallow="tram rail_urban rail rail_electric rail_fast ship" speed="22.22" length="0.31" shape="1237.11,516.27 1237.23,515.99"/>
    </edge>
    <edge id=":1890646220_0" function="internal">
        <lane id=":1890646220_0_0" index="0" disallow="tram rail_urban rail rail_electric rail_fast ship" speed="27.78" length="0.33" shape="414.67,255.84 414.33,255.85"/>
        <lane id=":1890646220_0_1" index="1" disallow="tram rail_urban rail rail_electric rail_fast ship" speed="27.78" length="0.33" shape="414.53,252.64 414.22,252.65"/>
    </edge>
    <edge id=":1890646220_2" function="internal">
        <lane id=":1890646220_2_0" index="0" disallow="tram rail_urban rail rail_electric rail_fast ship" speed="27.78" length="0.26" shape="414.02,246.26 414.27,246.25"/>
        <lane id=":1890646220_2_1" index="1" disallow="tram rail_urban rail rail_electric rail_fast ship" speed="27.78" length="0.26" shape="414.12,249.46 414.40,249.45"/>
    </edge>
    <edge id=":3289869078_0" function="internal">
        <lane id=":3289869078_0_0" index="0" disallow="tram rail_urban rail rail_electric rail_fast ship" speed="27.78" length="0.30" shape="1129.33,295.46 1129.06,295.34"/>
        <lane id=":3289869078_0_1" index="1" disallow="tram rail_urban rail rail_electric rail_fast ship" speed="27.78" length="0.30" shape="1130.60,292.52 1130.32,292.40"/>
        <lane id=":3289869078_0_2" index="2" disallow="tram rail_urban rail rail_electric rail_fast ship" speed="27.78" length="0.30" shape="1131.86,289.58 1131.58,289.46"/>
    </edge>
    <edge id=":3289869079_0" function="internal">
        <lane id=":3289869079_0_0" index="0" disallow="tram rail_urban rail rail_electric rail_fast ship" speed="27.78" length="7.99" shape="903.57,205.63 896.11,202.63"/>
        <lane id=":3289869079_0_1" index="1" disallow="tram rail_urban rail rail_electric rail_fast ship" speed="27.78" length="7.99" shape="904.74,202.66 897.33,199.67"/>
        <lane id=":3289869079_0_2" index="2" disallow="tram rail_urban rail rail_electric rail_fast ship" speed="27.78" length="7.99" shape="905.91,199.68 898.54,196.71"/>
    </edge>
    <edge id=":3289869079_3" function="internal">
        <lane id=":3289869079_3_0" index="0" disallow="tram rail_urban rail rail_electric rail_fast ship" speed="27.78" length="8.20" shape="903.57,205.63 901.23,204.98 899.53,204.89 897.83,204.79 895.50,204.11"/>
        <lane id=":3289869079_3_1" index="1" disallow="tram rail_urban rail rail_electric rail_fast ship" speed="27.78" length="8.20" shape="904.74,202.65 902.42,202.00 900.72,201.92 899.03,201.83 896.72,201.15"/>
        <lane id=":3289869079_3_2" index="2" disallow="tram rail_urban rail rail_electric rail_fast ship" speed="27.78" length="8.20" shape="905.92,199.68 903.60,199.03 901.92,198.95 900.24,198.86 897.94,198.19"/>
        <lane id=":3289869079_3_3" index="3" disallow="tram rail_urban rail rail_electric rail_fast ship" speed="27.78" length="8.20" shape="905.92,199.68 903.80,198.57 902.53,197.47 901.26,196.36 899.15,195.23"/>
    </edge>
    <edge id=":4653306326_0" function="internal">
        <lane id=":4653306326_0_0" index="0" disallow="tram rail_urban rail rail_electric rail_fast ship" speed="3.65" length="4.67" shape="1347.56,269.75 1348.90,269.21 1349.79,269.32 1350.22,270.10 1350.22,271.55"/>
    </edge>
    <edge id=":576941722_0" function="internal">
        <lane id=":576941722_0_0" index="0" disallow="tram rail_urban rail rail_electric rail_fast ship" speed="27.78" length="1.65" shape="775.65,374.58 774.04,374.12"/>
        <lane id=":576941722_0_1" index="1" disallow="tram rail_urban rail rail_electric rail_fast ship" speed="27.78" length="1.65" shape="778.85,374.40 777.24,374.06"/>
        <lane id=":576941722_0_2" index="2" disallow="tram rail_urban rail rail_electric rail_fast ship" speed="27.78" length="1.65" shape="782.04,374.22 780.44,374.01"/>
    </edge>
    <edge id=":576971401_0" function="internal">
        <lane id=":576971401_0_0" index="0" disallow="tram rail_urban rail rail_electric rail_fast ship" speed="27.78" length="8.19" shape="796.96,369.71 797.34,372.09 797.96,373.67 798.58,375.25 798.93,377.63"/>
        <lane id=":576971401_0_1" index="1" disallow="tram rail_urban rail rail_electric rail_fast ship" speed="27.78" length="8.19" shape="793.77,369.87 794.14,372.25 794.77,373.81 795.38,375.38 795.73,377.76"/>
    </edge>
    <edge id=":576971407_0" function="internal">
        <lane id=":576971407_0_0" index="0" disallow="tram rail_urban rail rail_electric rail_fast ship" speed="3.65" length="4.67" shape="1237.80,807.55 1237.29,808.90 1236.60,809.47 1235.73,809.26 1234.68,808.27"/>
    </edge>
    <edge id=":817484960_0" function="internal">
        <lane id=":817484960_0_0" index="0" disallow="tram rail_urban rail rail_electric rail_fast ship" speed="27.78" length="0.36" shape="913.72,-21.84 913.79,-21.98 913.85,-22.08 913.90,-22.17 913.99,-22.30"/>
        <lane id=":817484960_0_1" index="1" disallow="tram rail_urban rail rail_electric rail_fast ship" speed="27.78" length="0.36" shape="916.56,-20.36 916.58,-20.41 916.60,-20.44 916.62,-20.47 916.65,-20.51"/>
    </edge>
    <edge id=":817484976_0" function="internal">
        <lane id=":817484976_0_0" index="0" disallow="tram rail_urban rail rail_electric rail_fast ship" speed="25.00" length="13.28" shape="792.19,167.99 789.58,166.01 787.30,164.39 784.60,162.94 780.73,161.46"/>
    </edge>
    <edge id=":817484976_1" function="internal">
        <lane id=":817484976_1_0" index="0" disallow="tram rail_urban rail rail_electric rail_fast ship" speed="27.78" length="13.70" shape="794.21,164.00 790.26,163.04 787.46,162.77 784.66,162.48 780.73,161.46"/>
        <lane id=":817484976_1_1" index="1" disallow="tram rail_urban rail rail_electric rail_fast ship" speed="27.78" length="13.70" shape="795.16,160.95 791.23,160.00 788.44,159.73 785.66,159.43 781.74,158.42"/>
        <lane id=":817484976_1_2" index="2" disallow="tram rail_urban rail rail_electric rail_fast ship" speed="27.78" length="13.70" shape="796.12,157.90 792.20,156.95 789.42,156.68 786.65,156.39 782.75,155.38"/>
    </edge>
    <edge id=":817497123_0" function="internal">
        <lane id=":817497123_0_0" index="0" disallow="tram rail_urban rail rail_electric rail_fast ship" speed="25.00" length="11.54" shape="775.10,284.92 775.37,281.42 775.24,278.92 774.79,276.56 774.11,273.51"/>
    </edge>
    <edge id=":817497123_1" function="internal">
        <lane id=":817497123_1_0" index="0" disallow="tram rail_urban rail rail_electric rail_fast ship" speed="27.78" length="11.48" shape="778.28,285.29 778.48,281.82 778.37,279.41 778.40,277.03 779.05,273.64"/>
        <lane id=":817497123_1_1" index="1" disallow="tram rail_urban rail rail_electric rail_fast ship" speed="27.78" length="11.48" shape="778.28,285.29 778.96,281.97 779.92,279.81 781.02,277.69 782.15,274.45"/>
        <lane id=":817497123_1_2" index="2" disallow="tram rail_urban rail rail_electric rail_fast ship" speed="27.78" length="11.48" shape="781.46,285.67 782.12,282.47 783.07,280.41 784.15,278.37 785.24,275.26"/>
    </edge>
    <edge id=":817497152_0" function="internal">
        <lane id=":817497152_0_0" index="0" disallow="tram rail_urban rail rail_electric rail_fast ship" speed="27.78" length="0.32" shape="220.01,264.10 219.67,264.11"/>
        <lane id=":817497152_0_1" index="1" disallow="tram rail_urban rail rail_electric rail_fast ship" speed="27.78" length="0.32" shape="219.84,260.90 219.53,260.91"/>
    </edge>
    <edge id=":817497152_2" function="internal">
        <lane id=":817497152_2_0" index="0" disallow="tram rail_urban rail rail_electric rail_fast ship" speed="27.78" length="0.27" shape="219.25,254.52 219.51,254.51"/>
        <lane id=":817497152_2_1" index="1" disallow="tram rail_urban rail rail_electric rail_fast ship" speed="27.78" length="0.27" shape="219.39,257.72 219.67,257.70"/>
    </edge>
    <edge id=":817497162_0" function="internal">
        <lane id=":817497162_0_0" index="0" disallow="tram rail_urban rail rail_electric rail_fast ship" speed="14.93" length="16.45" shape="764.22,250.87 761.28,248.72 758.18,246.86 754.34,245.63 749.19,245.36"/>
    </edge>
    <edge id=":817497162_1" function="internal">
        <lane id=":817497162_1_0" index="0" disallow="tram rail_urban rail rail_electric rail_fast ship" speed="27.78" length="16.28" shape="765.42,245.22 749.19,245.36"/>
        <lane id=":817497162_1_1" index="1" disallow="tram rail_urban rail rail_electric rail_fast ship" speed="27.78" length="16.28" shape="765.34,242.02 749.02,242.16"/>
    </edge>
    <edge id=":817497162_3" function="internal">
        <lane id=":817497162_3_0" index="0" disallow="tram rail_urban rail rail_electric rail_fast ship" speed="27.78" length="16.46" shape="748.67,235.77 765.18,235.62"/>
        <lane id=":817497162_3_1" index="1" disallow="tram rail_urban rail rail_electric rail_fast ship" speed="27.78" length="16.46" shape="748.85,238.97 765.26,238.82"/>
    </edge>
    <edge id=":9554653484_0" function="internal">
        <lane id=":9554653484_0_0" index="0" disallow="tram rail_urban rail rail_electric rail_fast ship" speed="3.65" length="4.67" shape="0.07,270.28 -1.17,269.53 -1.60,268.75 -1.23,267.93 -0.07,267.08"/>
    </edge>
    <edge id=":984433904_0" function="internal">
        <lane id=":984433904_0_0" index="0" disallow="tram rail_urban rail rail_electric rail_fast ship" speed="27.78" length="8.20" shape="785.01,512.83 784.66,510.46 784.04,508.89 783.40,507.33 783.02,504.96"/>
        <lane id=":984433904_0_1" index="1" disallow="tram rail_urban rail rail_electric rail_fast ship" speed="27.78" length="8.20" shape="785.01,512.83 785.16,510.43 785.63,508.80 786.10,507.18 786.21,504.78"/>
        <lane id=":984433904_0_2" index="2" disallow="tram rail_urban rail rail_electric rail_fast ship" speed="27.78" length="8.20" shape="788.21,512.69 788.36,510.28 788.83,508.65 789.29,507.01 789.41,504.60"/>
    </edge>
    <edge id=":cluster_161411759_817484963_890670257_948231317_0" function="internal">
        <lane id=":cluster_161411759_817484963_890670257_948231317_0_0" index="0" disallow="tram rail_urban rail rail_electric rail_fast ship" speed="27.78" length="32.95" shape="844.65,179.91 814.24,167.32"/>
        <lane id=":cluster_161411759_817484963_890670257_948231317_0_1" index="1" disallow="tram rail_urban rail rail_electric rail_fast ship" speed="27.78" length="32.95" shape="845.82,176.93 815.33,164.31"/>
    </edge>
    <edge id=":cluster_161411759_817484963_890670257_948231317_2" function="internal">
        <lane id=":cluster_161411759_817484963_890670257_948231317_2_0" index="0" disallow="tram rail_urban rail rail_electric rail_fast ship" speed="11.94" length="34.83" shape="847.00,173.95 838.69,169.33 834.12,163.12 833.27,155.34 836.15,145.99"/>
    </edge>
    <edge id=":cluster_161411759_817484963_890670257_948231317_3" function="internal">
        <lane id=":cluster_161411759_817484963_890670257_948231317_3_0" index="0" disallow="tram rail_urban rail rail_electric rail_fast ship" speed="5.35" length="12.60" shape="847.00,173.95 844.78,170.76 844.57,168.36 846.36,166.74 850.16,165.93"/>
    </edge>
    <edge id=":cluster_161411759_817484963_890670257_948231317_4" function="internal">
        <lane id=":cluster_161411759_817484963_890670257_948231317_4_0" index="0" disallow="tram rail_urban rail rail_electric rail_fast ship" speed="6.53" length="9.36" shape="849.70,152.33 848.96,154.88 849.18,157.01 850.36,158.70 852.51,159.97"/>
    </edge>
    <edge id=":cluster_161411759_817484963_890670257_948231317_5" function="internal">
        <lane id=":cluster_161411759_817484963_890670257_948231317_5_0" index="0" disallow="tram rail_urban rail rail_electric rail_fast ship" speed="12.82" length="36.05" shape="843.90,149.61 838.54,158.62 831.99,164.07 824.25,165.97 815.33,164.31"/>
    </edge>
    <edge id=":cluster_161411759_817484963_890670257_948231317_6" function="internal">
        <lane id=":cluster_161411759_817484963_890670257_948231317_6_0" index="0" disallow="tram rail_urban rail rail_electric rail_fast ship" speed="5.33" length="12.50" shape="843.90,149.61 840.60,151.61 838.21,151.68 836.73,149.80 836.15,145.99"/>
    </edge>
    <edge id=":cluster_161411759_817484963_890670257_948231317_7" function="internal">
        <lane id=":cluster_161411759_817484963_890670257_948231317_7_0" index="0" disallow="tram rail_urban rail rail_electric rail_fast ship" speed="7.89" length="12.69" shape="821.81,146.38 825.95,147.47 829.24,147.53 831.67,146.59 833.25,144.63"/>
    </edge>
    <edge id=":cluster_161411759_817484963_890670257_948231317_8" function="internal">
        <lane id=":cluster_161411759_817484963_890670257_948231317_8_0" index="0" disallow="tram rail_urban rail rail_electric rail_fast ship" speed="27.78" length="33.48" shape="821.81,146.38 852.51,159.97"/>
        <lane id=":cluster_161411759_817484963_890670257_948231317_8_1" index="1" disallow="tram rail_urban rail rail_electric rail_fast ship" speed="27.78" length="33.48" shape="820.72,149.39 851.34,162.95"/>
        <lane id=":cluster_161411759_817484963_890670257_948231317_8_2" index="2" disallow="tram rail_urban rail rail_electric rail_fast ship" speed="27.78" length="33.48" shape="819.63,152.40 850.16,165.93"/>
    </edge>
    <edge id=":cluster_161411759_817484963_890670257_948231317_11" function="internal">
        <lane id=":cluster_161411759_817484963_890670257_948231317_11_0" index="0" disallow="tram rail_urban rail rail_electric rail_fast ship" speed="5.56" length="13.81" shape="818.55,155.41 821.08,158.84 821.39,161.47 819.47,163.29 815.33,164.31"/>
    </edge>
    <edge id=":cluster_161411759_817484963_890670257_948231317_12" function="internal">
        <lane id=":cluster_161411759_817484963_890670257_948231317_12_0" index="0" disallow="tram rail_urban rail rail_electric rail_fast ship" speed="6.48" length="9.46" shape="815.97,177.98 816.76,175.36 816.55,173.21 815.35,171.53 813.15,170.33"/>
    </edge>
    <edge id=":cluster_161411759_817484963_890670257_948231317_13" function="internal">
        <lane id=":cluster_161411759_817484963_890670257_948231317_13_0" index="0" disallow="tram rail_urban rail rail_electric rail_fast ship" speed="27.78" length="37.54" shape="815.97,177.98 833.25,144.63"/>
        <lane id=":cluster_161411759_817484963_890670257_948231317_13_1" index="1" disallow="tram rail_urban rail rail_electric rail_fast ship" speed="27.78" length="37.54" shape="818.88,179.29 836.15,145.99"/>
    </edge>
    <edge id=":cluster_161411759_817484963_890670257_948231317_15" function="internal">
        <lane id=":cluster_161411759_817484963_890670257_948231317_15_0" index="0" disallow="tram rail_urban rail rail_electric rail_fast ship" speed="12.68" length="35.99" shape="821.80,180.61 827.31,171.42 833.87,165.91 841.49,164.08 850.16,165.93"/>
    </edge>
    <edge id=":cluster_817485017_817497129_0" function="internal">
        <lane id=":cluster_817485017_817497129_0_0" index="0" disallow="tram rail_urban rail rail_electric rail_fast ship" speed="27.78" length="28.88" shape="813.67,240.78 809.49,248.28 806.21,253.30 803.68,258.55 801.72,266.76"/>
        <lane id=":cluster_817485017_817497129_0_1" index="1" disallow="tram rail_urban rail rail_electric rail_fast ship" speed="27.78" length="28.88" shape="810.72,239.52 806.52,247.04 803.21,252.07 800.65,257.33 798.68,265.56"/>
        <lane id=":cluster_817485017_817497129_0_2" index="2" disallow="tram rail_urban rail rail_electric rail_fast ship" speed="27.78" length="28.88" shape="807.78,238.26 803.87,245.88 801.06,251.05 798.59,256.35 795.67,264.38"/>
    </edge>
    <edge id=":cluster_817485017_817497129_3" function="internal">
        <lane id=":cluster_817485017_817497129_3_0" index="0" disallow="tram rail_urban rail rail_electric rail_fast ship" speed="12.63" length="25.11" shape="804.84,237.00 802.33,239.38 797.52,240.98 790.41,241.79 780.99,241.82"/>
    </edge>
    <edge id=":cluster_817485017_817497129_4" function="internal">
        <lane id=":cluster_817485017_817497129_4_0" index="0" disallow="tram rail_urban rail rail_electric rail_fast ship" speed="4.51" length="8.19" shape="804.84,237.00 802.72,238.38 801.15,238.47 800.14,237.27 799.68,234.79"/>
    </edge>
    <edge id=":cluster_817485017_817497129_5" function="internal">
        <lane id=":cluster_817485017_817497129_5_0" index="0" disallow="tram rail_urban rail rail_electric rail_fast ship" speed="8.40" length="11.29" shape="781.21,235.42 784.68,235.25 787.44,234.45 789.50,233.04 790.86,231.01"/>
        <lane id=":cluster_817485017_817497129_5_1" index="1" disallow="tram rail_urban rail rail_electric rail_fast ship" speed="9.14" length="13.52" shape="781.21,235.42 786.15,235.37 789.89,234.83 792.44,233.79 793.80,232.27"/>
        <lane id=":cluster_817485017_817497129_5_2" index="2" disallow="tram rail_urban rail rail_electric rail_fast ship" speed="9.89" length="15.95" shape="781.21,235.42 787.62,235.49 792.34,235.20 795.38,234.55 796.74,233.53"/>
    </edge>
    <edge id=":cluster_817485017_817497129_8" function="internal">
        <lane id=":cluster_817485017_817497129_8_0" index="0" disallow="tram rail_urban rail rail_electric rail_fast ship" speed="12.37" length="38.78" shape="781.10,238.62 791.78,240.61 797.66,245.71 799.65,254.00 798.68,265.56"/>
        <lane id=":cluster_817485017_817497129_8_1" index="1" disallow="tram rail_urban rail rail_electric rail_fast ship" speed="11.42" length="36.53" shape="781.10,238.62 791.03,240.69 796.48,245.86 797.89,253.85 795.67,264.38"/>
    </edge>
    <edge id=":cluster_817485017_817497129_10" function="internal">
        <lane id=":cluster_817485017_817497129_10_0" index="0" disallow="tram rail_urban rail rail_electric rail_fast ship" speed="27.78" length="29.16" shape="782.81,259.31 785.28,251.02 787.53,245.53 790.18,240.17 793.80,232.27"/>
        <lane id=":cluster_817485017_817497129_10_1" index="1" disallow="tram rail_urban rail rail_electric rail_fast ship" speed="27.78" length="29.16" shape="785.80,260.49 788.26,252.22 790.51,246.75 793.13,241.40 796.74,233.53"/>
        <lane id=":cluster_817485017_817497129_10_2" index="2" disallow="tram rail_urban rail rail_electric rail_fast ship" speed="27.78" length="29.16" shape="788.80,261.67 791.25,253.43 793.48,247.97 796.09,242.64 799.68,234.79"/>
    </edge>
    <edge id=":cluster_817485017_817497129_13" function="internal">
        <lane id=":cluster_817485017_817497129_13_0" index="0" disallow="tram rail_urban rail rail_electric rail_fast ship" speed="5.05" length="7.78" shape="788.80,261.67 791.53,259.77 793.59,259.59 794.97,261.12 795.04,261.44"/>
    </edge>
    <edge id=":cluster_817485017_817497129_14" function="internal">
        <lane id=":cluster_817485017_817497129_14_0" index="0" disallow="tram rail_urban rail rail_electric rail_fast ship" speed="5.05" length="3.01" shape="795.04,261.44 795.67,264.38"/>
    </edge>
    <edge id=":cluster_829171827_890670350_0" function="internal">
        <lane id=":cluster_829171827_890670350_0_0" index="0" disallow="tram rail_urban rail rail_electric rail_fast ship" speed="7.43" length="12.14" shape="1313.47,374.62 1309.61,373.31 1306.53,373.11 1304.24,374.02 1302.74,376.04"/>
    </edge>
    <edge id=":cluster_829171827_890670350_1" function="internal">
        <lane id=":cluster_829171827_890670350_1_0" index="0" disallow="tram rail_urban rail rail_electric rail_fast ship" speed="10.24" length="23.59" shape="1315.97,368.73 1311.61,365.66 1309.44,361.22 1309.44,355.41 1311.62,348.23"/>
    </edge>
    <edge id=":cluster_829171827_890670350_2" function="internal">
        <lane id=":cluster_829171827_890670350_2_0" index="0" disallow="tram rail_urban rail rail_electric rail_fast ship" speed="4.32" length="7.46" shape="1315.97,368.73 1314.71,366.81 1314.62,365.38 1315.71,364.46 1317.97,364.03"/>
    </edge>
    <edge id=":cluster_829171827_890670350_3" function="internal">
        <lane id=":cluster_829171827_890670350_3_0" index="0" disallow="tram rail_urban rail rail_electric rail_fast ship" speed="6.55" length="9.12" shape="1317.53,350.69 1316.89,353.13 1317.17,355.19 1318.37,356.86 1320.48,358.14"/>
    </edge>
    <edge id=":cluster_829171827_890670350_4" function="internal">
        <lane id=":cluster_829171827_890670350_4_0" index="0" disallow="tram rail_urban rail rail_electric rail_fast ship" speed="22.22" length="29.37" shape="1317.53,350.69 1313.87,357.90 1309.43,365.11 1305.34,371.44 1302.74,376.04"/>
    </edge>
    <edge id=":cluster_829171827_890670350_5" function="internal">
        <lane id=":cluster_829171827_890670350_5_0" index="0" disallow="tram rail_urban rail rail_electric rail_fast ship" speed="6.55" length="9.30" shape="1304.00,351.03 1306.52,351.76 1308.63,351.53 1310.33,350.36 1311.62,348.23"/>
    </edge>
    <edge id=":cluster_829171827_890670350_6" function="internal">
        <lane id=":cluster_829171827_890670350_6_0" index="0" disallow="tram rail_urban rail rail_electric rail_fast ship" speed="27.78" length="17.97" shape="1304.00,351.03 1320.48,358.14"/>
        <lane id=":cluster_829171827_890670350_6_1" index="1" disallow="tram rail_urban rail rail_electric rail_fast ship" speed="27.78" length="17.97" shape="1302.71,353.96 1319.23,361.09"/>
    </edge>
    <edge id=":cluster_829171827_890670350_8" function="internal">
        <lane id=":cluster_829171827_890670350_8_0" index="0" disallow="tram rail_urban rail rail_electric rail_fast ship" speed="9.71" length="21.26" shape="1301.42,356.89 1304.52,359.41 1305.77,363.45 1305.18,368.99 1302.74,376.04"/>
    </edge>
    <edge id=":cluster_829171827_890670350_9" function="internal">
        <lane id=":cluster_829171827_890670350_9_0" index="0" disallow="tram rail_urban rail rail_electric rail_fast ship" speed="22.22" length="29.06" shape="1299.80,374.78 1311.62,348.23"/>
    </edge>
    <edge id=":cluster_829171827_890670350_10" function="internal">
        <lane id=":cluster_829171827_890670350_10_0" index="0" disallow="tram rail_urban rail rail_electric rail_fast ship" speed="10.25" length="23.88" shape="1299.80,374.78 1303.46,368.25 1307.71,364.28 1312.55,362.88 1317.97,364.03"/>
    </edge>
    <edge id=":cluster_gneJ0_gneJ1_0" function="internal">
        <lane id=":cluster_gneJ0_gneJ1_0_0" index="0" disallow="tram rail_urban rail rail_electric rail_fast ship" speed="27.78" length="7.16" shape="686.75,126.75 680.08,124.05"/>
        <lane id=":cluster_gneJ0_gneJ1_0_1" index="1" disallow="tram rail_urban rail rail_electric rail_fast ship" speed="27.78" length="7.16" shape="687.88,123.76 681.24,121.07"/>
        <lane id=":cluster_gneJ0_gneJ1_0_2" index="2" disallow="tram rail_urban rail rail_electric rail_fast ship" speed="27.78" length="7.16" shape="689.01,120.77 682.40,118.09"/>
    </edge>
