<?xml version="1.0" encoding="UTF-8"?>

<!-- generated on 2022-07-07 10:59:12 by Eclipse SUMO netconvert Version 1.10.0
<configuration xmlns:xsi="http://www.w3.org/2001/XMLSchema-instance" xsi:noNamespaceSchemaLocation="http://sumo.dlr.de/xsd/netconvertConfiguration.xsd">

    <input>
        <sumo-net-file value="SktP-Tol.net.xml,Mend-SktP.net.xml"/>
    </input>

    <output>
        <output-file value="Mend-Tol.net.xml"/>
        <output.street-names value="true"/>
    </output>

    <processing>
        <geometry.min-radius.fix.railways value="false"/>
        <geometry.max-grade.fix value="false"/>
        <offset.disable-normalization value="true"/>
        <lefthand value="false"/>
    </processing>

    <junctions>
        <no-turnarounds value="true"/>
        <junctions.corner-detail value="5"/>
        <junctions.limit-turn-speed value="5.5"/>
        <rectangular-lane-cut value="false"/>
    </junctions>

    <pedestrian>
        <walkingareas value="false"/>
    </pedestrian>

    <report>
        <aggregate-warnings value="5"/>
        <ignore-errors value="true"/>
    </report>

</configuration>
-->

<net version="1.9" junctionCornerDetail="5" limitTurnSpeed="5.50" xmlns:xsi="http://www.w3.org/2001/XMLSchema-instance" xsi:noNamespaceSchemaLocation="http://sumo.dlr.de/xsd/net_file.xsd">

    <location netOffset="-315137.61,-4666987.55" convBoundary="-340.86,-661.32,1602.70,945.71" origBoundary="24.763076,42.127588,24.785510,42.143020" projParameter="+proj=utm +zone=35 +ellps=WGS84 +datum=WGS84 +units=m +no_defs"/>

    <type id="highway.bridleway" priority="1" numLanes="1" speed="2.78" allow="pedestrian" oneway="1" width="2.00"/>
    <type id="highway.bus_guideway" priority="1" numLanes="1" speed="27.78" allow="bus" oneway="1"/>
    <type id="highway.cycleway" priority="1" numLanes="1" speed="8.33" allow="bicycle" oneway="1" width="1.00"/>
    <type id="highway.footway" priority="1" numLanes="1" speed="2.78" allow="pedestrian" oneway="1" width="2.00"/>
    <type id="highway.ford" priority="1" numLanes="1" speed="2.78" allow="army" oneway="1"/>
    <type id="highway.living_street" priority="2" numLanes="1" speed="2.78" disallow="tram rail_urban rail rail_electric rail_fast ship" oneway="1"/>
    <type id="highway.motorway" priority="14" numLanes="2" speed="39.44" allow="private emergency authority army vip passenger hov taxi bus coach delivery truck trailer motorcycle evehicle custom1 custom2" oneway="1"/>
    <type id="highway.motorway_link" priority="9" numLanes="1" speed="22.22" allow="private emergency authority army vip passenger hov taxi bus coach delivery truck trailer motorcycle evehicle custom1 custom2" oneway="1"/>
    <type id="highway.path" priority="1" numLanes="1" speed="2.78" allow="pedestrian bicycle" oneway="1" width="2.00"/>
    <type id="highway.pedestrian" priority="1" numLanes="1" speed="2.78" allow="pedestrian" oneway="1" width="2.00"/>
    <type id="highway.primary" priority="12" numLanes="2" speed="27.78" disallow="tram rail_urban rail rail_electric rail_fast ship" oneway="1"/>
    <type id="highway.primary_link" priority="7" numLanes="1" speed="22.22" disallow="tram rail_urban rail rail_electric rail_fast ship" oneway="1"/>
    <type id="highway.raceway" priority="15" numLanes="2" speed="83.33" allow="vip" oneway="1"/>
    <type id="highway.residential" priority="3" numLanes="1" speed="13.89" disallow="tram rail_urban rail rail_electric rail_fast ship" oneway="1"/>
    <type id="highway.secondary" priority="11" numLanes="1" speed="27.78" disallow="tram rail_urban rail rail_electric rail_fast ship" oneway="1"/>
    <type id="highway.secondary_link" priority="6" numLanes="1" speed="22.22" disallow="tram rail_urban rail rail_electric rail_fast ship" oneway="1"/>
    <type id="highway.service" priority="1" numLanes="1" speed="5.56" allow="pedestrian delivery bicycle" oneway="1"/>
    <type id="highway.stairs" priority="1" numLanes="1" speed="1.39" allow="pedestrian" oneway="1" width="2.00"/>
    <type id="highway.step" priority="1" numLanes="1" speed="1.39" allow="pedestrian" oneway="1" width="2.00"/>
    <type id="highway.steps" priority="1" numLanes="1" speed="1.39" allow="pedestrian" oneway="1" width="2.00"/>
    <type id="highway.tertiary" priority="10" numLanes="1" speed="22.22" disallow="tram rail_urban rail rail_electric rail_fast ship" oneway="1"/>
    <type id="highway.tertiary_link" priority="5" numLanes="1" speed="22.22" disallow="tram rail_urban rail rail_electric rail_fast ship" oneway="1"/>
    <type id="highway.track" priority="1" numLanes="1" speed="5.56" allow="pedestrian motorcycle moped bicycle" oneway="1"/>
    <type id="highway.trunk" priority="13" numLanes="2" speed="27.78" disallow="pedestrian bicycle tram rail_urban rail rail_electric rail_fast ship" oneway="1"/>
    <type id="highway.trunk_link" priority="8" numLanes="1" speed="22.22" disallow="pedestrian bicycle tram rail_urban rail rail_electric rail_fast ship" oneway="1"/>
    <type id="highway.unclassified" priority="4" numLanes="1" speed="13.89" disallow="tram rail_urban rail rail_electric rail_fast ship" oneway="1"/>
    <type id="highway.unsurfaced" priority="1" numLanes="1" speed="8.33" disallow="tram rail_urban rail rail_electric rail_fast ship" oneway="1"/>
    <type id="railway.highspeed" priority="21" numLanes="1" speed="69.44" allow="rail_fast" oneway="1"/>
    <type id="railway.light_rail" priority="19" numLanes="1" speed="27.78" allow="rail_urban" oneway="1"/>
    <type id="railway.preserved" priority="16" numLanes="1" speed="27.78" allow="rail" oneway="1"/>
    <type id="railway.rail" priority="20" numLanes="1" speed="44.44" allow="rail" oneway="1"/>
    <type id="railway.subway" priority="18" numLanes="1" speed="27.78" allow="rail_urban" oneway="1"/>
    <type id="railway.tram" priority="17" numLanes="1" speed="13.89" allow="tram" oneway="1"/>

    <edge id=":1698373733_0" function="internal">
        <lane id=":1698373733_0_0" index="0" disallow="tram rail_urban rail rail_electric rail_fast ship" speed="22.22" length="0.22" shape="442.99,610.84 442.90,611.04"/>
    </edge>
    <edge id=":1698373733_1" function="internal">
        <lane id=":1698373733_1_0" index="0" disallow="tram rail_urban rail rail_electric rail_fast ship" speed="3.65" length="2.34" shape="442.99,610.84 441.77,611.61 440.88,611.65"/>
    </edge>
    <edge id=":1698373733_4" function="internal">
        <lane id=":1698373733_4_0" index="0" disallow="tram rail_urban rail rail_electric rail_fast ship" speed="3.65" length="2.34" shape="440.88,611.65 440.31,610.96 440.06,609.54"/>
    </edge>
    <edge id=":1698373733_2" function="internal">
        <lane id=":1698373733_2_0" index="0" disallow="tram rail_urban rail rail_electric rail_fast ship" speed="22.22" length="0.31" shape="439.94,609.82 440.06,609.54"/>
    </edge>
    <edge id=":1698373733_3" function="internal">
        <lane id=":1698373733_3_0" index="0" disallow="tram rail_urban rail rail_electric rail_fast ship" speed="3.65" length="2.34" shape="439.94,609.82 441.14,609.02 442.03,608.95"/>
    </edge>
    <edge id=":1698373733_5" function="internal">
        <lane id=":1698373733_5_0" index="0" disallow="tram rail_urban rail rail_electric rail_fast ship" speed="3.65" length="2.34" shape="442.03,608.95 442.62,609.63 442.90,611.04"/>
    </edge>
    <edge id=":3289869078_0" function="internal">
        <lane id=":3289869078_0_0" index="0" disallow="tram rail_urban rail rail_electric rail_fast ship" speed="27.78" length="0.30" shape="332.16,389.01 331.89,388.89"/>
        <lane id=":3289869078_0_1" index="1" disallow="tram rail_urban rail rail_electric rail_fast ship" speed="27.78" length="0.30" shape="333.43,386.07 333.15,385.95"/>
        <lane id=":3289869078_0_2" index="2" disallow="tram rail_urban rail rail_electric rail_fast ship" speed="27.78" length="0.30" shape="334.69,383.13 334.41,383.01"/>
    </edge>
    <edge id=":3289869079_0" function="internal">
        <lane id=":3289869079_0_0" index="0" disallow="tram rail_urban rail rail_electric rail_fast ship" speed="27.78" length="7.99" shape="106.40,299.18 98.94,296.18"/>
        <lane id=":3289869079_0_1" index="1" disallow="tram rail_urban rail rail_electric rail_fast ship" speed="27.78" length="7.99" shape="107.57,296.21 100.16,293.22"/>
        <lane id=":3289869079_0_2" index="2" disallow="tram rail_urban rail rail_electric rail_fast ship" speed="27.78" length="7.99" shape="108.74,293.23 101.37,290.26"/>
    </edge>
    <edge id=":3371554760_0" function="internal">
        <lane id=":3371554760_0_0" index="0" disallow="tram rail_urban rail rail_electric rail_fast ship" speed="27.78" length="0.30" shape="390.17,414.00 389.89,413.88"/>
        <lane id=":3371554760_0_1" index="1" disallow="tram rail_urban rail rail_electric rail_fast ship" speed="27.78" length="0.30" shape="391.43,411.06 391.15,410.94"/>
        <lane id=":3371554760_0_2" index="2" disallow="tram rail_urban rail rail_electric rail_fast ship" speed="27.78" length="0.30" shape="392.69,408.12 392.42,408.00"/>
    </edge>
    <edge id=":4653306326_0" function="internal">
        <lane id=":4653306326_0_0" index="0" disallow="tram rail_urban rail rail_electric rail_fast ship" speed="3.65" length="4.67" shape="550.39,363.30 551.73,362.76 552.62,362.87 553.05,363.65 553.05,365.10"/>
    </edge>
    <edge id=":575651336_0" function="internal">
        <lane id=":575651336_0_0" index="0" disallow="tram rail_urban rail rail_electric rail_fast ship" speed="25.00" length="7.80" shape="3.14,298.43 4.11,296.33 4.82,294.89 5.35,293.40 5.79,291.14"/>
    </edge>
    <edge id=":575651336_1" function="internal">
        <lane id=":575651336_1_0" index="0" disallow="tram rail_urban rail rail_electric rail_fast ship" speed="27.78" length="7.27" shape="6.08,299.69 9.10,293.01"/>
        <lane id=":575651336_1_1" index="1" disallow="tram rail_urban rail rail_electric rail_fast ship" speed="27.78" length="7.27" shape="9.02,300.95 12.01,294.32"/>
        <lane id=":575651336_1_2" index="2" disallow="tram rail_urban rail rail_electric rail_fast ship" speed="27.78" length="7.27" shape="11.96,302.21 14.93,295.64"/>
    </edge>
    <edge id=":576971407_0" function="internal">
        <lane id=":576971407_0_0" index="0" disallow="tram rail_urban rail rail_electric rail_fast ship" speed="3.65" length="4.67" shape="440.63,901.10 440.12,902.45 439.43,903.02 438.56,902.81 437.51,901.82"/>
    </edge>
    <edge id=":817484960_0" function="internal">
        <lane id=":817484960_0_0" index="0" disallow="tram rail_urban rail rail_electric rail_fast ship" speed="27.78" length="0.36" shape="116.55,71.71 116.62,71.57 116.68,71.47 116.73,71.38 116.82,71.25"/>
        <lane id=":817484960_0_1" index="1" disallow="tram rail_urban rail rail_electric rail_fast ship" speed="27.78" length="0.36" shape="119.39,73.19 119.41,73.14 119.43,73.11 119.45,73.08 119.48,73.04"/>
    </edge>
    <edge id=":817484976_0" function="internal">
        <lane id=":817484976_0_0" index="0" disallow="tram rail_urban rail rail_electric rail_fast ship" speed="25.00" length="13.28" shape="-4.98,261.54 -7.59,259.56 -9.87,257.94 -12.57,256.49 -16.44,255.01"/>
    </edge>
    <edge id=":817484976_1" function="internal">
        <lane id=":817484976_1_0" index="0" disallow="tram rail_urban rail rail_electric rail_fast ship" speed="27.78" length="13.70" shape="-2.96,257.55 -6.91,256.59 -9.71,256.32 -12.51,256.03 -16.44,255.01"/>
        <lane id=":817484976_1_1" index="1" disallow="tram rail_urban rail rail_electric rail_fast ship" speed="27.78" length="13.70" shape="-2.01,254.50 -5.94,253.55 -8.73,253.28 -11.51,252.98 -15.43,251.97"/>
        <lane id=":817484976_1_2" index="2" disallow="tram rail_urban rail rail_electric rail_fast ship" speed="27.78" length="13.70" shape="-1.05,251.45 -4.97,250.50 -7.75,250.23 -10.52,249.94 -14.42,248.93"/>
    </edge>
    <edge id=":cluster_161411759_817484963_890670257_948231317_0" function="internal">
        <lane id=":cluster_161411759_817484963_890670257_948231317_0_0" index="0" disallow="tram rail_urban rail rail_electric rail_fast ship" speed="6.60" length="9.05" shape="47.09,276.73 44.68,276.19 42.64,276.53 40.99,277.76 39.72,279.86"/>
    </edge>
    <edge id=":cluster_161411759_817484963_890670257_948231317_1" function="internal">
        <lane id=":cluster_161411759_817484963_890670257_948231317_1_0" index="0" disallow="tram rail_urban rail rail_electric rail_fast ship" speed="27.78" length="33.79" shape="48.26,273.75 17.07,260.87"/>
        <lane id=":cluster_161411759_817484963_890670257_948231317_1_1" index="1" disallow="tram rail_urban rail rail_electric rail_fast ship" speed="27.78" length="33.79" shape="49.44,270.77 18.16,257.86"/>
    </edge>
    <edge id=":cluster_161411759_817484963_890670257_948231317_3" function="internal">
        <lane id=":cluster_161411759_817484963_890670257_948231317_3_0" index="0" disallow="tram rail_urban rail rail_electric rail_fast ship" speed="12.05" length="35.49" shape="50.61,267.80 41.96,263.04 37.14,256.75 36.15,248.91 38.98,239.54"/>
    </edge>
    <edge id=":cluster_161411759_817484963_890670257_948231317_4" function="internal">
        <lane id=":cluster_161411759_817484963_890670257_948231317_4_0" index="0" disallow="tram rail_urban rail rail_electric rail_fast ship" speed="5.35" length="12.58" shape="50.61,267.80 48.40,264.61 48.18,262.21 49.98,260.60 53.77,259.79"/>
    </edge>
    <edge id=":cluster_161411759_817484963_890670257_948231317_5" function="internal">
        <lane id=":cluster_161411759_817484963_890670257_948231317_5_0" index="0" disallow="tram rail_urban rail rail_electric rail_fast ship" speed="6.74" length="10.03" shape="52.53,245.88 51.83,248.45 52.20,250.63 53.63,252.43 56.12,253.83"/>
    </edge>
    <edge id=":cluster_161411759_817484963_890670257_948231317_6" function="internal">
        <lane id=":cluster_161411759_817484963_890670257_948231317_6_0" index="0" disallow="tram rail_urban rail rail_electric rail_fast ship" speed="27.78" length="36.38" shape="52.53,245.88 39.72,279.86"/>
        <lane id=":cluster_161411759_817484963_890670257_948231317_6_1" index="1" disallow="tram rail_urban rail rail_electric rail_fast ship" speed="27.78" length="36.38" shape="49.63,244.52 36.78,278.61"/>
    </edge>
    <edge id=":cluster_161411759_817484963_890670257_948231317_8" function="internal">
        <lane id=":cluster_161411759_817484963_890670257_948231317_8_0" index="0" disallow="tram rail_urban rail rail_electric rail_fast ship" speed="12.82" length="36.05" shape="46.73,243.16 41.37,252.17 34.82,257.62 27.08,259.52 18.16,257.86"/>
    </edge>
    <edge id=":cluster_161411759_817484963_890670257_948231317_9" function="internal">
        <lane id=":cluster_161411759_817484963_890670257_948231317_9_0" index="0" disallow="tram rail_urban rail rail_electric rail_fast ship" speed="5.33" length="12.50" shape="46.73,243.16 43.43,245.16 41.04,245.23 39.56,243.35 38.98,239.54"/>
    </edge>
    <edge id=":cluster_161411759_817484963_890670257_948231317_10" function="internal">
        <lane id=":cluster_161411759_817484963_890670257_948231317_10_0" index="0" disallow="tram rail_urban rail rail_electric rail_fast ship" speed="7.89" length="12.69" shape="24.64,239.93 28.78,241.02 32.07,241.08 34.50,240.14 36.08,238.18"/>
    </edge>
    <edge id=":cluster_161411759_817484963_890670257_948231317_11" function="internal">
        <lane id=":cluster_161411759_817484963_890670257_948231317_11_0" index="0" disallow="tram rail_urban rail rail_electric rail_fast ship" speed="27.78" length="34.32" shape="24.64,239.93 56.12,253.83"/>
        <lane id=":cluster_161411759_817484963_890670257_948231317_11_1" index="1" disallow="tram rail_urban rail rail_electric rail_fast ship" speed="27.78" length="34.32" shape="23.55,242.94 54.94,256.81"/>
        <lane id=":cluster_161411759_817484963_890670257_948231317_11_2" index="2" disallow="tram rail_urban rail rail_electric rail_fast ship" speed="27.78" length="34.32" shape="22.46,245.95 53.77,259.79"/>
    </edge>
    <edge id=":cluster_161411759_817484963_890670257_948231317_14" function="internal">
        <lane id=":cluster_161411759_817484963_890670257_948231317_14_0" index="0" disallow="tram rail_urban rail rail_electric rail_fast ship" speed="11.72" length="33.26" shape="21.38,248.96 28.84,253.05 32.91,258.94 33.60,266.63 30.89,276.11"/>
    </edge>
    <edge id=":cluster_161411759_817484963_890670257_948231317_15" function="internal">
        <lane id=":cluster_161411759_817484963_890670257_948231317_15_0" index="0" disallow="tram rail_urban rail rail_electric rail_fast ship" speed="5.56" length="13.81" shape="21.38,248.96 23.91,252.39 24.22,255.02 22.30,256.84 18.16,257.86"/>
    </edge>
    <edge id=":cluster_161411759_817484963_890670257_948231317_16" function="internal">
        <lane id=":cluster_161411759_817484963_890670257_948231317_16_0" index="0" disallow="tram rail_urban rail rail_electric rail_fast ship" speed="6.35" length="9.06" shape="19.00,271.07 19.70,268.65 19.43,266.65 18.19,265.06 15.98,263.88"/>
    </edge>
    <edge id=":cluster_161411759_817484963_890670257_948231317_17" function="internal">
        <lane id=":cluster_161411759_817484963_890670257_948231317_17_0" index="0" disallow="tram rail_urban rail rail_electric rail_fast ship" speed="27.78" length="37.01" shape="19.00,271.07 36.08,238.18"/>
        <lane id=":cluster_161411759_817484963_890670257_948231317_17_1" index="1" disallow="tram rail_urban rail rail_electric rail_fast ship" speed="27.78" length="37.01" shape="21.95,272.32 38.98,239.54"/>
    </edge>
    <edge id=":cluster_161411759_817484963_890670257_948231317_19" function="internal">
        <lane id=":cluster_161411759_817484963_890670257_948231317_19_0" index="0" disallow="tram rail_urban rail rail_electric rail_fast ship" speed="12.70" length="36.11" shape="24.89,273.57 30.33,264.66 36.96,259.39 44.77,257.77 53.77,259.79"/>
    </edge>
    <edge id=":cluster_829171827_890670350_0" function="internal">
        <lane id=":cluster_829171827_890670350_0_0" index="0" disallow="tram rail_urban rail rail_electric rail_fast ship" speed="7.43" length="12.14" shape="516.30,468.17 512.44,466.86 509.36,466.66 507.07,467.57 505.57,469.59"/>
    </edge>
    <edge id=":cluster_829171827_890670350_1" function="internal">
        <lane id=":cluster_829171827_890670350_1_0" index="0" disallow="tram rail_urban rail rail_electric rail_fast ship" speed="27.78" length="18.09" shape="516.30,468.17 499.71,460.96"/>
        <lane id=":cluster_829171827_890670350_1_1" index="1" disallow="tram rail_urban rail rail_electric rail_fast ship" speed="27.78" length="18.09" shape="517.55,465.23 500.97,458.02"/>
    </edge>
    <edge id=":cluster_829171827_890670350_3" function="internal">
        <lane id=":cluster_829171827_890670350_3_0" index="0" disallow="tram rail_urban rail rail_electric rail_fast ship" speed="10.24" length="23.59" shape="518.80,462.28 514.44,459.21 512.27,454.77 512.27,448.96 514.45,441.78"/>
    </edge>
    <edge id=":cluster_829171827_890670350_4" function="internal">
        <lane id=":cluster_829171827_890670350_4_0" index="0" disallow="tram rail_urban rail rail_electric rail_fast ship" speed="4.32" length="7.46" shape="518.80,462.28 517.54,460.36 517.45,458.93 518.54,458.01 520.80,457.58"/>
    </edge>
    <edge id=":cluster_829171827_890670350_5" function="internal">
        <lane id=":cluster_829171827_890670350_5_0" index="0" disallow="tram rail_urban rail rail_electric rail_fast ship" speed="6.55" length="9.12" shape="520.36,444.24 519.72,446.68 520.00,448.74 521.20,450.41 523.31,451.69"/>
    </edge>
    <edge id=":cluster_829171827_890670350_6" function="internal">
        <lane id=":cluster_829171827_890670350_6_0" index="0" disallow="tram rail_urban rail rail_electric rail_fast ship" speed="22.22" length="29.37" shape="520.36,444.24 516.70,451.45 512.26,458.66 508.17,464.99 505.57,469.59"/>
    </edge>
    <edge id=":cluster_829171827_890670350_7" function="internal">
        <lane id=":cluster_829171827_890670350_7_0" index="0" disallow="tram rail_urban rail rail_electric rail_fast ship" speed="9.72" length="21.62" shape="517.41,443.01 514.00,449.68 510.33,453.91 506.41,455.71 502.23,455.08"/>
    </edge>
    <edge id=":cluster_829171827_890670350_8" function="internal">
        <lane id=":cluster_829171827_890670350_8_0" index="0" disallow="tram rail_urban rail rail_electric rail_fast ship" speed="6.57" length="9.37" shape="506.75,444.55 509.31,445.29 511.44,445.07 513.16,443.90 514.45,441.78"/>
    </edge>
    <edge id=":cluster_829171827_890670350_9" function="internal">
        <lane id=":cluster_829171827_890670350_9_0" index="0" disallow="tram rail_urban rail rail_electric rail_fast ship" speed="27.78" length="18.04" shape="506.75,444.55 523.31,451.69"/>
        <lane id=":cluster_829171827_890670350_9_1" index="1" disallow="tram rail_urban rail rail_electric rail_fast ship" speed="27.78" length="18.04" shape="505.49,447.49 522.06,454.64"/>
    </edge>
    <edge id=":cluster_829171827_890670350_11" function="internal">
        <lane id=":cluster_829171827_890670350_11_0" index="0" disallow="tram rail_urban rail rail_electric rail_fast ship" speed="9.71" length="21.28" shape="504.23,450.43 507.34,452.96 508.60,456.99 508.01,462.54 505.57,469.59"/>
    </edge>
    <edge id=":cluster_829171827_890670350_12" function="internal">
        <lane id=":cluster_829171827_890670350_12_0" index="0" disallow="tram rail_urban rail rail_electric rail_fast ship" speed="4.31" length="7.39" shape="504.23,450.43 505.47,452.34 505.55,453.75 504.47,454.66 502.23,455.08"/>
    </edge>
    <edge id=":cluster_829171827_890670350_13" function="internal">
        <lane id=":cluster_829171827_890670350_13_0" index="0" disallow="tram rail_urban rail rail_electric rail_fast ship" speed="6.51" length="9.04" shape="502.63,468.33 503.28,465.93 503.01,463.90 501.82,462.25 499.71,460.96"/>
    </edge>
    <edge id=":cluster_829171827_890670350_14" function="internal">
        <lane id=":cluster_829171827_890670350_14_0" index="0" disallow="tram rail_urban rail rail_electric rail_fast ship" speed="22.22" length="29.06" shape="502.63,468.33 514.45,441.78"/>
    </edge>
    <edge id=":cluster_829171827_890670350_15" function="internal">
        <lane id=":cluster_829171827_890670350_15_0" index="0" disallow="tram rail_urban rail rail_electric rail_fast ship" speed="10.25" length="23.88" shape="502.63,468.33 506.29,461.80 510.54,457.83 515.38,456.43 520.80,457.58"/>
    </edge>
    <edge id=":cluster_gneJ0_gneJ1_0" function="internal">
        <lane id=":cluster_gneJ0_gneJ1_0_0" index="0" disallow="tram rail_urban rail rail_electric rail_fast ship" speed="27.78" length="7.16" shape="-110.42,220.30 -117.09,217.60"/>
        <lane id=":cluster_gneJ0_gneJ1_0_1" index="1" disallow="tram rail_urban rail rail_electric rail_fast ship" speed="27.78" length="7.16" shape="-109.29,217.31 -115.93,214.62"/>
        <lane id=":cluster_gneJ0_gneJ1_0_2" index="2" disallow="tram rail_urban rail rail_electric rail_fast ship" speed="27.78" length="7.16" shape="-108.16,214.32 -114.77,211.64"/>
    </edge>

    <edge id="-305384999#3" from="1698373733" to="cluster_829171827_890670350" name="Лев Толостой" priority="10" type="highway.tertiary" shape="441.47,610.31 461.95,564.01 483.56,515.14 486.22,509.43 489.76,501.22 502.88,471.79 507.59,460.86">
        <lane id="-305384999#3_0" index="0" disallow="tram rail_urban rail rail_electric rail_fast ship" speed="22.22" length="154.46" shape="440.06,609.54 460.49,563.36 482.10,514.48 484.76,508.78 488.29,500.58 501.41,471.15 502.63,468.33">
            <param key="origId" value="305384999"/>
        </lane>
        <param key="origTo" value="829171827"/>
    </edge>
    <edge id="-305384999#4" from="576971407" to="1698373733" name="Лев Толостой" priority="10" type="highway.tertiary" shape="439.07,901.46 418.08,810.52 413.52,790.76 411.96,711.54 411.45,683.49 428.91,640.91 441.47,610.31">
        <lane id="-305384999#4_0" index="0" disallow="tram rail_urban rail rail_electric rail_fast ship" speed="22.22" length="300.86" shape="437.51,901.82 416.52,810.88 411.92,790.96 410.36,711.57 409.84,683.19 427.43,640.30 439.94,609.82">
            <param key="origId" value="305384999"/>
        </lane>
    </edge>
    <edge id="-471168801#4" from="cluster_829171827_890670350" to="4653306326" name="Професор Цветан Лазаров" priority="10" type="highway.tertiary" shape="512.52,450.58 516.57,440.86 518.31,437.59 542.06,383.96 549.15,368.00 551.72,364.20">
        <lane id="-471168801#4_0" index="0" disallow="tram rail_urban rail rail_electric rail_fast ship" speed="22.22" length="86.40" shape="514.45,441.78 515.12,440.17 516.87,436.89 540.60,383.31 547.75,367.22 550.39,363.30">
            <param key="origId" value="471168801"/>
        </lane>
        <param key="origFrom" value="890670350"/>
    </edge>
    <edge id="1030774408" from="817484960" to="817484983" name="бул. Менделеев" priority="12" type="highway.primary" spreadType="center" shape="118.05,72.29 205.75,-58.03 294.77,-195.19 340.77,-283.57">
        <lane id="1030774408_0" index="0" disallow="tram rail_urban rail rail_electric rail_fast ship" speed="27.78" length="420.05" shape="116.82,71.25 204.42,-58.91 293.39,-196.00 339.35,-284.31">
            <param key="origId" value="1030774408"/>
        </lane>
        <lane id="1030774408_1" index="1" disallow="tram rail_urban rail rail_electric rail_fast ship" speed="27.78" length="420.05" shape="119.48,73.04 207.08,-57.15 296.15,-194.38 342.19,-282.83">
            <param key="origId" value="1030774408"/>
        </lane>
    </edge>
    <edge id="136100505#0" from="cluster_161411759_817484963_890670257_948231317" to="817497134" name="бул. Източен" priority="12" type="highway.primary" spreadType="center" shape="39.26,268.66 18.24,318.23 13.08,330.41">
        <lane id="136100505#0_0" index="0" disallow="tram rail_urban rail rail_electric rail_fast ship" speed="27.78" length="56.94" shape="39.72,279.86 22.66,320.10 17.50,332.28">
            <param key="origId" value="136100505"/>
        </lane>
        <lane id="136100505#0_1" index="1" disallow="tram rail_urban rail rail_electric rail_fast ship" speed="27.78" length="56.94" shape="36.78,278.61 19.71,318.85 14.55,331.03">
            <param key="origId" value="136100505"/>
        </lane>
        <lane id="136100505#0_2" index="2" disallow="tram rail_urban rail rail_electric rail_fast ship" speed="27.78" length="56.94" shape="33.83,277.36 16.77,317.61 11.61,329.79">
            <param key="origId" value="136100505"/>
        </lane>
        <lane id="136100505#0_3" index="3" disallow="tram rail_urban rail rail_electric rail_fast ship" speed="27.78" length="56.94" shape="30.89,276.11 13.82,316.36 8.66,328.54">
            <param key="origId" value="136100505"/>
        </lane>
        <param key="origFrom" value="161411759"/>
    </edge>
    <edge id="136100509" from="cluster_161411759_817484963_890670257_948231317" to="817484960" name="бул. Менделеев" priority="12" type="highway.primary" spreadType="center" shape="33.25,248.01 93.08,120.15 118.05,72.29">
        <lane id="136100509_0" index="0" disallow="tram rail_urban rail rail_electric rail_fast ship" speed="27.78" length="184.87" shape="36.08,238.18 91.65,119.44 116.55,71.71">
            <param key="origId" value="136100509"/>
        </lane>
        <lane id="136100509_1" index="1" disallow="tram rail_urban rail rail_electric rail_fast ship" speed="27.78" length="184.87" shape="38.98,239.54 94.51,120.86 119.39,73.19">
            <param key="origId" value="136100509"/>
        </lane>
        <param key="origFrom" value="948231317"/>
    </edge>
    <edge id="136100522#0" from="948231317" to="cluster_829171827_890670350" name="бул. Санкт Петербург" priority="11" type="highway.secondary" spreadType="center" shape="33.24,248.01 45.79,253.18 51.14,255.29 59.70,258.72 84.24,269.18 159.08,299.51 283.54,349.94 366.26,386.20 512.52,450.58">
        <lane id="136100522#0_0" index="0" disallow="tram rail_urban rail rail_electric rail_fast ship" speed="27.78" length="512.70" shape="34.46,245.05 47.00,250.22 52.32,252.32 60.92,255.76 85.47,266.23 160.28,296.54 284.78,346.99 367.55,383.27 506.75,444.55">
            <param key="origId" value="136100522"/>
        </lane>
        <lane id="136100522#0_1" index="1" disallow="tram rail_urban rail rail_electric rail_fast ship" speed="27.78" length="512.70" shape="33.24,248.01 45.79,253.18 51.14,255.29 59.70,258.72 84.24,269.18 159.08,299.51 283.54,349.94 366.26,386.20 505.49,447.49">
            <param key="origId" value="136100522"/>
        </lane>
        <lane id="136100522#0_2" index="2" disallow="tram rail_urban rail rail_electric rail_fast ship" speed="27.78" length="512.70" shape="32.02,250.97 44.58,256.14 49.96,258.26 58.48,261.68 83.01,272.13 157.88,302.48 282.30,352.89 364.97,389.13 504.23,450.43">
            <param key="origId" value="136100522"/>
        </lane>
        <param key="origTo" value="890670350"/>
        <param key="ref" value="8604"/>
    </edge>
    <edge id="136100522#1" from="cluster_161411759_817484963_890670257_948231317" to="890670350" name="бул. Санкт Петербург" priority="11" type="highway.secondary" spreadType="center" shape="45.80,253.18 51.15,255.29 59.71,258.72 84.24,269.18 159.08,299.51 283.55,349.94 366.27,386.20 512.53,450.58">
        <lane id="136100522#1_0" index="0" disallow="tram rail_urban rail rail_electric rail_fast ship" speed="27.78" length="496.97" shape="56.12,253.83 60.93,255.76 85.47,266.23 160.28,296.54 284.79,346.99 367.56,383.27 513.82,447.65">
            <param key="origId" value="136100522"/>
        </lane>